version 3
run withgui-0-20230917-17:31:03-11882
attr configname withgui
attr datetime 20230917-17:31:03
attr datetimef 20230917-173103
attr experiment withgui
attr inifile omnetpp.ini
attr iterationvars ""
attr iterationvarsd ""
attr iterationvarsf ""
attr measurement ""
attr network scenario
attr processid 11882
attr repetition 0
attr replication #0
attr resultdir veins-runall-output
attr runnumber 0
attr seedset 0
config image-path ../../../../../inet4.4/images:../../../../../veins-veins-5.2/images
config *.manager.ignoreGuiCommands false
config cmdenv-event-banner-details true
config cmdenv-event-banners true
config cmdenv-express-mode false
config cmdenv-autoflush true
config cmdenv-log-prefix "[%c%?-%l] %G:%R "
config cmdenv-performance-display false
config result-dir veins-runall-output
config network scenario
config debug-on-errors true
config print-undisposed false
config sim-time-limit 200s
config **.scalar-recording true
config **.vector-recording true
config *.playgroundSizeX 14935m
config *.playgroundSizeY 8039m
config *.playgroundSizeZ 50m
config *.annotations.draw false
config *.world.useTorus false
config *.world.use2D false
config *.manager.updateInterval 1s
config *.manager.host "\"localhost\""
config *.manager.port 9999
config *.manager.moduleType "\"org.car2x.veins.nodes.Car\""
config *.manager.moduleName "\"node\""
config *.manager.moduleDisplayString "\"\""
config *.manager.autoShutdown true
config *.manager.margin 25
config *.manager.launchConfig "xmldoc(\"map_nttd.launchd.xml\")"
config *.manager.trafficLightModuleType "\"org.car2x.veins.nodes.TrafficLight\""
config *.manager.trafficLightModuleName "\"trafficLight\""
config *.manager.trafficLightModuleDisplayString default
config *.manager.trafficLightFilter "\"10\""
config *.manager.ignoreGuiCommands true
config *.trafficLight[0].mobility.x 0
config *.trafficLight[0].mobility.y 0
config *.trafficLight[0].mobility.z 3
config *.trafficLight[*].applType "\"test.myveins.TrafficLightApp\""
config *.trafficLight[*].logicType "\"test.myveins.TrafficLightTestLogic\""
config *.trafficLight[*].appl.headerLength 4096bit
config *.trafficLight[*].appl.sendBeacons false
config *.trafficLight[*].appl.dataOnSch false
config *.connectionManager.sendDirect true
config *.connectionManager.maxInterfDist 2600m
config *.connectionManager.drawMaxIntfDist false
config *.**.nic.mac1609_4.useServiceChannel false
config *.**.nic.mac1609_4.txPower 20mW
config *.**.nic.mac1609_4.bitrate 18Mbps
config *.**.nic.phy80211p.minPowerLevel -110dBm
config *.**.nic.phy80211p.useNoiseFloor true
config *.**.nic.phy80211p.noiseFloor -98dBm
config *.**.nic.phy80211p.decider "xmldoc(\"config.xml\")"
config *.**.nic.phy80211p.analogueModels "xmldoc(\"config.xml\")"
config *.**.nic.phy80211p.usePropagationDelay true
config *.node[*].applType "\"test.myveins.TraCI\""
config *.node[*].appl.headerLength 4096bit
config *.node[*].appl.sendBeacons true
config *.node[*].appl.dataOnSch false
config *.node[*].appl.beaconInterval 10s
config *.node[*].veinsmobility.x 0
config *.node[*].veinsmobility.y 0
config *.node[*].veinsmobility.z 0
config *.node[*].veinsmobility.setHostSpeed true

par scenario.obstacles typename "\"org.car2x.veins.modules.obstacle.ObstacleControl\""
par scenario.obstacles obstacles "<obstacles/> at content:1"
par scenario.obstacles gridCellSize 250
par scenario.annotations typename "\"org.car2x.veins.modules.world.annotations.AnnotationManager\""
par scenario.annotations draw false
par scenario.annotations annotations "<annotations/> at content:1"
par scenario.connectionManager typename "\"org.car2x.veins.base.connectionManager.ConnectionManager\""
par scenario.connectionManager sendDirect true
par scenario.connectionManager maxInterfDist 2600m
attr unit m
par scenario.connectionManager drawMaxIntfDist false
par scenario.world typename "\"org.car2x.veins.base.modules.BaseWorldUtility\""
par scenario.world playgroundSizeX 14935m
attr unit m
par scenario.world playgroundSizeY 8039m
attr unit m
par scenario.world playgroundSizeZ 50m
attr unit m
par scenario.world useTorus false
par scenario.world use2D false
par scenario.manager typename "\"org.car2x.veins.modules.mobility.traci.TraCIScenarioManagerLaunchd\""
par scenario.manager connectAt 0s
attr unit s
par scenario.manager firstStepAt -1s
attr unit s
par scenario.manager updateInterval 1s
attr unit s
par scenario.manager moduleType "\"org.car2x.veins.nodes.Car\""
par scenario.manager moduleName "\"node\""
par scenario.manager moduleDisplayString "\"\""
par scenario.manager trafficLightModuleType "\"org.car2x.veins.nodes.TrafficLight\""
par scenario.manager trafficLightModuleName "\"trafficLight\""
par scenario.manager trafficLightFilter "\"10\""
par scenario.manager trafficLightModuleDisplayString "\"i=misc/node2;is=vs;r=0,,#707070,1\""
par scenario.manager host "\"localhost\""
par scenario.manager port 9999
par scenario.manager seed -1
par scenario.manager autoShutdown true
par scenario.manager margin 25
par scenario.manager roiRoads "\"\""
par scenario.manager roiRects "\"\""
par scenario.manager penetrationRate 1
par scenario.manager ignoreGuiCommands false
par scenario.manager launchConfig "<launch>...</launch> at /home/mike/Documents/dsrc_cv2x/omnetpp-6.0/samples/test/simulations/traci//map_nttd.launchd.xml:4"
scalar scenario.manager roiArea 0
par scenario.roadsCanvasVisualizer typename "\"org.car2x.veins.visualizer.roads.RoadsCanvasVisualizer\""
par scenario.roadsCanvasVisualizer enabled true
par scenario.roadsCanvasVisualizer lineZIndex -1
par scenario.roadsCanvasVisualizer lineColor "\"firebrick4\""
par scenario.roadsCanvasVisualizer lineWidth 1
par scenario.roadsCanvasVisualizer lineWidthZoom false
par scenario.TraCIVehicleInserter typename "\"test.myveins.TraCIVehicleInserter\""
par scenario.TraCIVehicleInserter numVehicles 0
par scenario.TraCIVehicleInserter useRouteDistributions false
par scenario.TraCIVehicleInserter vehicleRngIndex 0
par scenario.node[0].appl typename "\"test.myveins.TraCI\""
par scenario.node[0].appl headerLength 4096bit
attr unit bit
par scenario.node[0].appl sendBeacons true
par scenario.node[0].appl beaconLengthBits 256bit
attr unit bit
par scenario.node[0].appl beaconUserPriority 7
par scenario.node[0].appl beaconInterval 10s
attr unit s
par scenario.node[0].appl dataLengthBits 1024bit
attr unit bit
par scenario.node[0].appl dataOnSch false
par scenario.node[0].appl dataUserPriority 7
par scenario.node[0].appl avoidBeaconSynchronization true
par scenario.node[0].appl sendWSA false
par scenario.node[0].appl wsaLengthBits 250bit
attr unit bit
par scenario.node[0].appl wsaInterval 1s
attr unit s
par scenario.node[0].appl appName "\"My first Veins App!\""
scalar scenario.node[0].appl generatedWSMs 0
scalar scenario.node[0].appl receivedWSMs 0
scalar scenario.node[0].appl generatedBSMs 1
scalar scenario.node[0].appl receivedBSMs 0
scalar scenario.node[0].appl generatedWSAs 0
scalar scenario.node[0].appl receivedWSAs 0
par scenario.node[0].nic.phy80211p typename "\"org.car2x.veins.modules.phy.PhyLayer80211p\""
par scenario.node[0].nic.phy80211p recordStats false
par scenario.node[0].nic.phy80211p usePropagationDelay true
par scenario.node[0].nic.phy80211p noiseFloor -98dBm
attr unit dBm
par scenario.node[0].nic.phy80211p useNoiseFloor true
par scenario.node[0].nic.phy80211p antenna "<root>...</root> at content:1"
par scenario.node[0].nic.phy80211p antennaOffsetX 0m
attr unit m
par scenario.node[0].nic.phy80211p antennaOffsetY 0m
attr unit m
par scenario.node[0].nic.phy80211p antennaOffsetZ 1.895m
attr unit m
par scenario.node[0].nic.phy80211p antennaOffsetYaw 0rad
attr unit rad
par scenario.node[0].nic.phy80211p analogueModels "<root>...</root> at /home/mike/Documents/dsrc_cv2x/omnetpp-6.0/samples/test/simulations/traci//config.xml:34"
par scenario.node[0].nic.phy80211p decider "<root>...</root> at /home/mike/Documents/dsrc_cv2x/omnetpp-6.0/samples/test/simulations/traci//config.xml:34"
par scenario.node[0].nic.phy80211p minPowerLevel -110dBm
attr unit dBm
par scenario.node[0].nic.phy80211p timeRXToTX 0s
attr unit s
par scenario.node[0].nic.phy80211p timeRXToSleep 0s
attr unit s
par scenario.node[0].nic.phy80211p timeTXToRX 0s
attr unit s
par scenario.node[0].nic.phy80211p timeTXToSleep 0s
attr unit s
par scenario.node[0].nic.phy80211p timeSleepToRX 0s
attr unit s
par scenario.node[0].nic.phy80211p timeSleepToTX 0s
attr unit s
par scenario.node[0].nic.phy80211p initialRadioState 0
par scenario.node[0].nic.phy80211p radioMinAtt 1
par scenario.node[0].nic.phy80211p radioMaxAtt 0
par scenario.node[0].nic.phy80211p nbRadioChannels 1
par scenario.node[0].nic.phy80211p initialRadioChannel 0
par scenario.node[0].nic.phy80211p ccaThreshold -65dBm
attr unit dBm
par scenario.node[0].nic.phy80211p collectCollisionStatistics false
par scenario.node[0].nic.phy80211p allowTxDuringRx false
scalar scenario.node[0].nic.phy80211p busyTime 0.00033989907962053
par scenario.node[0].nic.mac1609_4 typename "\"org.car2x.veins.modules.mac.ieee80211p.Mac1609_4\""
par scenario.node[0].nic.mac1609_4 notAffectedByHostState false
par scenario.node[0].nic.mac1609_4 headerLength 0bit
attr unit bit
par scenario.node[0].nic.mac1609_4 address "\"auto\""
par scenario.node[0].nic.mac1609_4 useServiceChannel false
par scenario.node[0].nic.mac1609_4 serviceChannel 1
par scenario.node[0].nic.mac1609_4 bitrate 18000000bps
attr unit bps
par scenario.node[0].nic.mac1609_4 syncOffset 0.0003s
attr unit s
par scenario.node[0].nic.mac1609_4 txPower 20mW
attr unit mW
par scenario.node[0].nic.mac1609_4 queueSize 0
par scenario.node[0].nic.mac1609_4 dot11RTSThreshold 12000bit
attr unit bit
par scenario.node[0].nic.mac1609_4 dot11ShortRetryLimit 7
par scenario.node[0].nic.mac1609_4 dot11LongRetryLimit 4
par scenario.node[0].nic.mac1609_4 ackLength 112bit
attr unit bit
par scenario.node[0].nic.mac1609_4 useAcks false
par scenario.node[0].nic.mac1609_4 frameErrorRate 0
par scenario.node[0].nic.mac1609_4 ackErrorRate 0
scalar scenario.node[0].nic.mac1609_4 ReceivedUnicastPackets 0
scalar scenario.node[0].nic.mac1609_4 ReceivedBroadcasts 0
scalar scenario.node[0].nic.mac1609_4 SentPackets 1
scalar scenario.node[0].nic.mac1609_4 SentAcknowledgements 0
scalar scenario.node[0].nic.mac1609_4 RetriesExceeded 0
scalar scenario.node[0].nic.mac1609_4 SNIRLostPackets 5
scalar scenario.node[0].nic.mac1609_4 RXTXLostPackets 0
scalar scenario.node[0].nic.mac1609_4 TotalLostPackets 5
scalar scenario.node[0].nic.mac1609_4 DroppedPacketsInMac 0
scalar scenario.node[0].nic.mac1609_4 TooLittleTime 0
scalar scenario.node[0].nic.mac1609_4 TimesIntoBackoff 0
scalar scenario.node[0].nic.mac1609_4 SlotsBackoff 0
scalar scenario.node[0].nic.mac1609_4 NumInternalContention 0
scalar scenario.node[0].nic.mac1609_4 totalBusyTime 0.00144
scalar scenario.node[0].nic.mac1609_4 retriesExceeded:count 0
attr recordingmode count
attr source org_car2x_veins_modules_mac_sigRetriesExceeded
scalar scenario.node[0].nic.mac1609_4 sentAcks:count 0
attr recordingmode count
attr source org_car2x_veins_modules_mac_sigSentAck
scalar scenario.node[0].nic.mac1609_4 sentPackets:count 1
attr recordingmode count
attr source org_car2x_veins_modules_mac_sigSentPacket
scalar scenario.node[0].nic.mac1609_4 collisions:count 0
attr recordingmode count
attr source org_car2x_veins_modules_mac_sigCollision
scalar scenario.node[0].nic.mac1609_4 channelBusy:timeavg 0.00034038072062905
attr recordingmode timeavg
attr source org_car2x_veins_modules_mac_sigChannelBusy
par scenario.node[0].nic typename "\"org.car2x.veins.modules.nic.Nic80211p\""
par scenario.node[0].nic connectionManagerName "\"connectionManager\""
par scenario.node[0].veinsmobility typename "\"org.car2x.veins.modules.mobility.traci.TraCIMobility\""
par scenario.node[0].veinsmobility notAffectedByHostState true
par scenario.node[0].veinsmobility x 0
par scenario.node[0].veinsmobility y 0
par scenario.node[0].veinsmobility z 0
par scenario.node[0].veinsmobility xOrientation 1
par scenario.node[0].veinsmobility yOrientation 0
par scenario.node[0].veinsmobility zOrientation 0
par scenario.node[0].veinsmobility hostPositionOffset 0m
attr unit m
par scenario.node[0].veinsmobility setHostSpeed true
par scenario.node[0].veinsmobility accidentCount 0
par scenario.node[0].veinsmobility accidentStart 48.0829s
attr unit s
par scenario.node[0].veinsmobility accidentDuration "uniform(30s, 60s)"
attr unit s
par scenario.node[0].veinsmobility accidentInterval "uniform(30s, 60s)"
attr unit s
scalar scenario.node[0].veinsmobility startTime 1
scalar scenario.node[0].veinsmobility totalTime 4
scalar scenario.node[0].veinsmobility stopTime 5.236551630583
scalar scenario.node[0].veinsmobility minSpeed 1.529956558696
scalar scenario.node[0].veinsmobility maxSpeed 8.0354872251628
scalar scenario.node[0].veinsmobility totalDistance 18.250452362509
scalar scenario.node[0].veinsmobility totalCO2Emission 13.477317397298
par scenario.node[0] typename "\"org.car2x.veins.nodes.Car\""
par scenario.node[0] applType "\"test.myveins.TraCI\""
par scenario.node[0] nicType "\"Nic80211p\""
par scenario.node[0] veinsmobilityType "\"org.car2x.veins.modules.mobility.traci.TraCIMobility\""
par scenario.node[1].appl typename "\"test.myveins.TraCI\""
par scenario.node[1].appl headerLength 4096bit
attr unit bit
par scenario.node[1].appl sendBeacons true
par scenario.node[1].appl beaconLengthBits 256bit
attr unit bit
par scenario.node[1].appl beaconUserPriority 7
par scenario.node[1].appl beaconInterval 10s
attr unit s
par scenario.node[1].appl dataLengthBits 1024bit
attr unit bit
par scenario.node[1].appl dataOnSch false
par scenario.node[1].appl dataUserPriority 7
par scenario.node[1].appl avoidBeaconSynchronization true
par scenario.node[1].appl sendWSA false
par scenario.node[1].appl wsaLengthBits 250bit
attr unit bit
par scenario.node[1].appl wsaInterval 1s
attr unit s
par scenario.node[1].appl appName "\"My first Veins App!\""
scalar scenario.node[1].appl generatedWSMs 0
scalar scenario.node[1].appl receivedWSMs 0
scalar scenario.node[1].appl generatedBSMs 1
scalar scenario.node[1].appl receivedBSMs 0
scalar scenario.node[1].appl generatedWSAs 0
scalar scenario.node[1].appl receivedWSAs 0
par scenario.node[1].nic.phy80211p typename "\"org.car2x.veins.modules.phy.PhyLayer80211p\""
par scenario.node[1].nic.phy80211p recordStats false
par scenario.node[1].nic.phy80211p usePropagationDelay true
par scenario.node[1].nic.phy80211p noiseFloor -98dBm
attr unit dBm
par scenario.node[1].nic.phy80211p useNoiseFloor true
par scenario.node[1].nic.phy80211p antenna "<root>...</root> at content:1"
par scenario.node[1].nic.phy80211p antennaOffsetX 0m
attr unit m
par scenario.node[1].nic.phy80211p antennaOffsetY 0m
attr unit m
par scenario.node[1].nic.phy80211p antennaOffsetZ 1.895m
attr unit m
par scenario.node[1].nic.phy80211p antennaOffsetYaw 0rad
attr unit rad
par scenario.node[1].nic.phy80211p analogueModels "<root>...</root> at /home/mike/Documents/dsrc_cv2x/omnetpp-6.0/samples/test/simulations/traci//config.xml:34"
par scenario.node[1].nic.phy80211p decider "<root>...</root> at /home/mike/Documents/dsrc_cv2x/omnetpp-6.0/samples/test/simulations/traci//config.xml:34"
par scenario.node[1].nic.phy80211p minPowerLevel -110dBm
attr unit dBm
par scenario.node[1].nic.phy80211p timeRXToTX 0s
attr unit s
par scenario.node[1].nic.phy80211p timeRXToSleep 0s
attr unit s
par scenario.node[1].nic.phy80211p timeTXToRX 0s
attr unit s
par scenario.node[1].nic.phy80211p timeTXToSleep 0s
attr unit s
par scenario.node[1].nic.phy80211p timeSleepToRX 0s
attr unit s
par scenario.node[1].nic.phy80211p timeSleepToTX 0s
attr unit s
par scenario.node[1].nic.phy80211p initialRadioState 0
par scenario.node[1].nic.phy80211p radioMinAtt 1
par scenario.node[1].nic.phy80211p radioMaxAtt 0
par scenario.node[1].nic.phy80211p nbRadioChannels 1
par scenario.node[1].nic.phy80211p initialRadioChannel 0
par scenario.node[1].nic.phy80211p ccaThreshold -65dBm
attr unit dBm
par scenario.node[1].nic.phy80211p collectCollisionStatistics false
par scenario.node[1].nic.phy80211p allowTxDuringRx false
scalar scenario.node[1].nic.phy80211p busyTime 0.00027191926369642
par scenario.node[1].nic.mac1609_4 typename "\"org.car2x.veins.modules.mac.ieee80211p.Mac1609_4\""
par scenario.node[1].nic.mac1609_4 notAffectedByHostState false
par scenario.node[1].nic.mac1609_4 headerLength 0bit
attr unit bit
par scenario.node[1].nic.mac1609_4 address "\"auto\""
par scenario.node[1].nic.mac1609_4 useServiceChannel false
par scenario.node[1].nic.mac1609_4 serviceChannel 1
par scenario.node[1].nic.mac1609_4 bitrate 18000000bps
attr unit bps
par scenario.node[1].nic.mac1609_4 syncOffset 0.0003s
attr unit s
par scenario.node[1].nic.mac1609_4 txPower 20mW
attr unit mW
par scenario.node[1].nic.mac1609_4 queueSize 0
par scenario.node[1].nic.mac1609_4 dot11RTSThreshold 12000bit
attr unit bit
par scenario.node[1].nic.mac1609_4 dot11ShortRetryLimit 7
par scenario.node[1].nic.mac1609_4 dot11LongRetryLimit 4
par scenario.node[1].nic.mac1609_4 ackLength 112bit
attr unit bit
par scenario.node[1].nic.mac1609_4 useAcks false
par scenario.node[1].nic.mac1609_4 frameErrorRate 0
par scenario.node[1].nic.mac1609_4 ackErrorRate 0
scalar scenario.node[1].nic.mac1609_4 ReceivedUnicastPackets 0
scalar scenario.node[1].nic.mac1609_4 ReceivedBroadcasts 0
scalar scenario.node[1].nic.mac1609_4 SentPackets 1
scalar scenario.node[1].nic.mac1609_4 SentAcknowledgements 0
scalar scenario.node[1].nic.mac1609_4 RetriesExceeded 0
scalar scenario.node[1].nic.mac1609_4 SNIRLostPackets 4
scalar scenario.node[1].nic.mac1609_4 RXTXLostPackets 0
scalar scenario.node[1].nic.mac1609_4 TotalLostPackets 4
scalar scenario.node[1].nic.mac1609_4 DroppedPacketsInMac 0
scalar scenario.node[1].nic.mac1609_4 TooLittleTime 0
scalar scenario.node[1].nic.mac1609_4 TimesIntoBackoff 1
scalar scenario.node[1].nic.mac1609_4 SlotsBackoff 2
scalar scenario.node[1].nic.mac1609_4 NumInternalContention 0
scalar scenario.node[1].nic.mac1609_4 totalBusyTime 0.001441
scalar scenario.node[1].nic.mac1609_4 retriesExceeded:count 0
attr recordingmode count
attr source org_car2x_veins_modules_mac_sigRetriesExceeded
scalar scenario.node[1].nic.mac1609_4 sentAcks:count 0
attr recordingmode count
attr source org_car2x_veins_modules_mac_sigSentAck
scalar scenario.node[1].nic.mac1609_4 sentPackets:count 1
attr recordingmode count
attr source org_car2x_veins_modules_mac_sigSentPacket
scalar scenario.node[1].nic.mac1609_4 collisions:count 0
attr recordingmode count
attr source org_car2x_veins_modules_mac_sigCollision
scalar scenario.node[1].nic.mac1609_4 channelBusy:timeavg 0.00034013512064804
attr recordingmode timeavg
attr source org_car2x_veins_modules_mac_sigChannelBusy
par scenario.node[1].nic typename "\"org.car2x.veins.modules.nic.Nic80211p\""
par scenario.node[1].nic connectionManagerName "\"connectionManager\""
par scenario.node[1].veinsmobility typename "\"org.car2x.veins.modules.mobility.traci.TraCIMobility\""
par scenario.node[1].veinsmobility notAffectedByHostState true
par scenario.node[1].veinsmobility x 0
par scenario.node[1].veinsmobility y 0
par scenario.node[1].veinsmobility z 0
par scenario.node[1].veinsmobility xOrientation 1
par scenario.node[1].veinsmobility yOrientation 0
par scenario.node[1].veinsmobility zOrientation 0
par scenario.node[1].veinsmobility hostPositionOffset 0m
attr unit m
par scenario.node[1].veinsmobility setHostSpeed true
par scenario.node[1].veinsmobility accidentCount 0
par scenario.node[1].veinsmobility accidentStart 48.7069s
attr unit s
par scenario.node[1].veinsmobility accidentDuration "uniform(30s, 60s)"
attr unit s
par scenario.node[1].veinsmobility accidentInterval "uniform(30s, 60s)"
attr unit s
scalar scenario.node[1].veinsmobility startTime 1
scalar scenario.node[1].veinsmobility totalTime 4
scalar scenario.node[1].veinsmobility stopTime 5.236551630583
scalar scenario.node[1].veinsmobility minSpeed 1.9318736586953
scalar scenario.node[1].veinsmobility maxSpeed 6.6714872650569
scalar scenario.node[1].veinsmobility totalDistance 16.865086915764
scalar scenario.node[1].veinsmobility totalCO2Emission 9.9152437290414
par scenario.node[1] typename "\"org.car2x.veins.nodes.Car\""
par scenario.node[1] applType "\"test.myveins.TraCI\""
par scenario.node[1] nicType "\"Nic80211p\""
par scenario.node[1] veinsmobilityType "\"org.car2x.veins.modules.mobility.traci.TraCIMobility\""
par scenario.node[2].appl typename "\"test.myveins.TraCI\""
par scenario.node[2].appl headerLength 4096bit
attr unit bit
par scenario.node[2].appl sendBeacons true
par scenario.node[2].appl beaconLengthBits 256bit
attr unit bit
par scenario.node[2].appl beaconUserPriority 7
par scenario.node[2].appl beaconInterval 10s
attr unit s
par scenario.node[2].appl dataLengthBits 1024bit
attr unit bit
par scenario.node[2].appl dataOnSch false
par scenario.node[2].appl dataUserPriority 7
par scenario.node[2].appl avoidBeaconSynchronization true
par scenario.node[2].appl sendWSA false
par scenario.node[2].appl wsaLengthBits 250bit
attr unit bit
par scenario.node[2].appl wsaInterval 1s
attr unit s
par scenario.node[2].appl appName "\"My first Veins App!\""
scalar scenario.node[2].appl generatedWSMs 0
scalar scenario.node[2].appl receivedWSMs 0
scalar scenario.node[2].appl generatedBSMs 1
scalar scenario.node[2].appl receivedBSMs 0
scalar scenario.node[2].appl generatedWSAs 0
scalar scenario.node[2].appl receivedWSAs 0
par scenario.node[2].nic.phy80211p typename "\"org.car2x.veins.modules.phy.PhyLayer80211p\""
par scenario.node[2].nic.phy80211p recordStats false
par scenario.node[2].nic.phy80211p usePropagationDelay true
par scenario.node[2].nic.phy80211p noiseFloor -98dBm
attr unit dBm
par scenario.node[2].nic.phy80211p useNoiseFloor true
par scenario.node[2].nic.phy80211p antenna "<root>...</root> at content:1"
par scenario.node[2].nic.phy80211p antennaOffsetX 0m
attr unit m
par scenario.node[2].nic.phy80211p antennaOffsetY 0m
attr unit m
par scenario.node[2].nic.phy80211p antennaOffsetZ 1.895m
attr unit m
par scenario.node[2].nic.phy80211p antennaOffsetYaw 0rad
attr unit rad
par scenario.node[2].nic.phy80211p analogueModels "<root>...</root> at /home/mike/Documents/dsrc_cv2x/omnetpp-6.0/samples/test/simulations/traci//config.xml:34"
par scenario.node[2].nic.phy80211p decider "<root>...</root> at /home/mike/Documents/dsrc_cv2x/omnetpp-6.0/samples/test/simulations/traci//config.xml:34"
par scenario.node[2].nic.phy80211p minPowerLevel -110dBm
attr unit dBm
par scenario.node[2].nic.phy80211p timeRXToTX 0s
attr unit s
par scenario.node[2].nic.phy80211p timeRXToSleep 0s
attr unit s
par scenario.node[2].nic.phy80211p timeTXToRX 0s
attr unit s
par scenario.node[2].nic.phy80211p timeTXToSleep 0s
attr unit s
par scenario.node[2].nic.phy80211p timeSleepToRX 0s
attr unit s
par scenario.node[2].nic.phy80211p timeSleepToTX 0s
attr unit s
par scenario.node[2].nic.phy80211p initialRadioState 0
par scenario.node[2].nic.phy80211p radioMinAtt 1
par scenario.node[2].nic.phy80211p radioMaxAtt 0
par scenario.node[2].nic.phy80211p nbRadioChannels 1
par scenario.node[2].nic.phy80211p initialRadioChannel 0
par scenario.node[2].nic.phy80211p ccaThreshold -65dBm
attr unit dBm
par scenario.node[2].nic.phy80211p collectCollisionStatistics false
par scenario.node[2].nic.phy80211p allowTxDuringRx false
scalar scenario.node[2].nic.phy80211p busyTime 0.00027191926369642
par scenario.node[2].nic.mac1609_4 typename "\"org.car2x.veins.modules.mac.ieee80211p.Mac1609_4\""
par scenario.node[2].nic.mac1609_4 notAffectedByHostState false
par scenario.node[2].nic.mac1609_4 headerLength 0bit
attr unit bit
par scenario.node[2].nic.mac1609_4 address "\"auto\""
par scenario.node[2].nic.mac1609_4 useServiceChannel false
par scenario.node[2].nic.mac1609_4 serviceChannel 1
par scenario.node[2].nic.mac1609_4 bitrate 18000000bps
attr unit bps
par scenario.node[2].nic.mac1609_4 syncOffset 0.0003s
attr unit s
par scenario.node[2].nic.mac1609_4 txPower 20mW
attr unit mW
par scenario.node[2].nic.mac1609_4 queueSize 0
par scenario.node[2].nic.mac1609_4 dot11RTSThreshold 12000bit
attr unit bit
par scenario.node[2].nic.mac1609_4 dot11ShortRetryLimit 7
par scenario.node[2].nic.mac1609_4 dot11LongRetryLimit 4
par scenario.node[2].nic.mac1609_4 ackLength 112bit
attr unit bit
par scenario.node[2].nic.mac1609_4 useAcks false
par scenario.node[2].nic.mac1609_4 frameErrorRate 0
par scenario.node[2].nic.mac1609_4 ackErrorRate 0
scalar scenario.node[2].nic.mac1609_4 ReceivedUnicastPackets 0
scalar scenario.node[2].nic.mac1609_4 ReceivedBroadcasts 0
scalar scenario.node[2].nic.mac1609_4 SentPackets 1
scalar scenario.node[2].nic.mac1609_4 SentAcknowledgements 0
scalar scenario.node[2].nic.mac1609_4 RetriesExceeded 0
scalar scenario.node[2].nic.mac1609_4 SNIRLostPackets 4
scalar scenario.node[2].nic.mac1609_4 RXTXLostPackets 0
scalar scenario.node[2].nic.mac1609_4 TotalLostPackets 4
scalar scenario.node[2].nic.mac1609_4 DroppedPacketsInMac 0
scalar scenario.node[2].nic.mac1609_4 TooLittleTime 0
scalar scenario.node[2].nic.mac1609_4 TimesIntoBackoff 1
scalar scenario.node[2].nic.mac1609_4 SlotsBackoff 1
scalar scenario.node[2].nic.mac1609_4 NumInternalContention 0
scalar scenario.node[2].nic.mac1609_4 totalBusyTime 0.001441
scalar scenario.node[2].nic.mac1609_4 retriesExceeded:count 0
attr recordingmode count
attr source org_car2x_veins_modules_mac_sigRetriesExceeded
scalar scenario.node[2].nic.mac1609_4 sentAcks:count 0
attr recordingmode count
attr source org_car2x_veins_modules_mac_sigSentAck
scalar scenario.node[2].nic.mac1609_4 sentPackets:count 1
attr recordingmode count
attr source org_car2x_veins_modules_mac_sigSentPacket
scalar scenario.node[2].nic.mac1609_4 collisions:count 0
attr recordingmode count
attr source org_car2x_veins_modules_mac_sigCollision
scalar scenario.node[2].nic.mac1609_4 channelBusy:timeavg 0.00034013512064804
attr recordingmode timeavg
attr source org_car2x_veins_modules_mac_sigChannelBusy
par scenario.node[2].nic typename "\"org.car2x.veins.modules.nic.Nic80211p\""
par scenario.node[2].nic connectionManagerName "\"connectionManager\""
par scenario.node[2].veinsmobility typename "\"org.car2x.veins.modules.mobility.traci.TraCIMobility\""
par scenario.node[2].veinsmobility notAffectedByHostState true
par scenario.node[2].veinsmobility x 0
par scenario.node[2].veinsmobility y 0
par scenario.node[2].veinsmobility z 0
par scenario.node[2].veinsmobility xOrientation 1
par scenario.node[2].veinsmobility yOrientation 0
par scenario.node[2].veinsmobility zOrientation 0
par scenario.node[2].veinsmobility hostPositionOffset 0m
attr unit m
par scenario.node[2].veinsmobility setHostSpeed true
par scenario.node[2].veinsmobility accidentCount 0
par scenario.node[2].veinsmobility accidentStart 56.7532s
attr unit s
par scenario.node[2].veinsmobility accidentDuration "uniform(30s, 60s)"
attr unit s
par scenario.node[2].veinsmobility accidentInterval "uniform(30s, 60s)"
attr unit s
scalar scenario.node[2].veinsmobility startTime 1
scalar scenario.node[2].veinsmobility totalTime 4
scalar scenario.node[2].veinsmobility stopTime 5.236551630583
scalar scenario.node[2].veinsmobility minSpeed 2.3995883058989
scalar scenario.node[2].veinsmobility maxSpeed 7.522032133746
scalar scenario.node[2].veinsmobility totalDistance 20.398409755202
scalar scenario.node[2].veinsmobility totalCO2Emission 11.463662614844
par scenario.node[2] typename "\"org.car2x.veins.nodes.Car\""
par scenario.node[2] applType "\"test.myveins.TraCI\""
par scenario.node[2] nicType "\"Nic80211p\""
par scenario.node[2] veinsmobilityType "\"org.car2x.veins.modules.mobility.traci.TraCIMobility\""
par scenario.node[3].appl typename "\"test.myveins.TraCI\""
par scenario.node[3].appl headerLength 4096bit
attr unit bit
par scenario.node[3].appl sendBeacons true
par scenario.node[3].appl beaconLengthBits 256bit
attr unit bit
par scenario.node[3].appl beaconUserPriority 7
par scenario.node[3].appl beaconInterval 10s
attr unit s
par scenario.node[3].appl dataLengthBits 1024bit
attr unit bit
par scenario.node[3].appl dataOnSch false
par scenario.node[3].appl dataUserPriority 7
par scenario.node[3].appl avoidBeaconSynchronization true
par scenario.node[3].appl sendWSA false
par scenario.node[3].appl wsaLengthBits 250bit
attr unit bit
par scenario.node[3].appl wsaInterval 1s
attr unit s
par scenario.node[3].appl appName "\"My first Veins App!\""
scalar scenario.node[3].appl generatedWSMs 0
scalar scenario.node[3].appl receivedWSMs 0
scalar scenario.node[3].appl generatedBSMs 0
scalar scenario.node[3].appl receivedBSMs 0
scalar scenario.node[3].appl generatedWSAs 0
scalar scenario.node[3].appl receivedWSAs 0
par scenario.node[3].nic.phy80211p typename "\"org.car2x.veins.modules.phy.PhyLayer80211p\""
par scenario.node[3].nic.phy80211p recordStats false
par scenario.node[3].nic.phy80211p usePropagationDelay true
par scenario.node[3].nic.phy80211p noiseFloor -98dBm
attr unit dBm
par scenario.node[3].nic.phy80211p useNoiseFloor true
par scenario.node[3].nic.phy80211p antenna "<root>...</root> at content:1"
par scenario.node[3].nic.phy80211p antennaOffsetX 0m
attr unit m
par scenario.node[3].nic.phy80211p antennaOffsetY 0m
attr unit m
par scenario.node[3].nic.phy80211p antennaOffsetZ 1.895m
attr unit m
par scenario.node[3].nic.phy80211p antennaOffsetYaw 0rad
attr unit rad
par scenario.node[3].nic.phy80211p analogueModels "<root>...</root> at /home/mike/Documents/dsrc_cv2x/omnetpp-6.0/samples/test/simulations/traci//config.xml:34"
par scenario.node[3].nic.phy80211p decider "<root>...</root> at /home/mike/Documents/dsrc_cv2x/omnetpp-6.0/samples/test/simulations/traci//config.xml:34"
par scenario.node[3].nic.phy80211p minPowerLevel -110dBm
attr unit dBm
par scenario.node[3].nic.phy80211p timeRXToTX 0s
attr unit s
par scenario.node[3].nic.phy80211p timeRXToSleep 0s
attr unit s
par scenario.node[3].nic.phy80211p timeTXToRX 0s
attr unit s
par scenario.node[3].nic.phy80211p timeTXToSleep 0s
attr unit s
par scenario.node[3].nic.phy80211p timeSleepToRX 0s
attr unit s
par scenario.node[3].nic.phy80211p timeSleepToTX 0s
attr unit s
par scenario.node[3].nic.phy80211p initialRadioState 0
par scenario.node[3].nic.phy80211p radioMinAtt 1
par scenario.node[3].nic.phy80211p radioMaxAtt 0
par scenario.node[3].nic.phy80211p nbRadioChannels 1
par scenario.node[3].nic.phy80211p initialRadioChannel 0
par scenario.node[3].nic.phy80211p ccaThreshold -65dBm
attr unit dBm
par scenario.node[3].nic.phy80211p collectCollisionStatistics false
par scenario.node[3].nic.phy80211p allowTxDuringRx false
scalar scenario.node[3].nic.phy80211p busyTime 0.00033989907962053
par scenario.node[3].nic.mac1609_4 typename "\"org.car2x.veins.modules.mac.ieee80211p.Mac1609_4\""
par scenario.node[3].nic.mac1609_4 notAffectedByHostState false
par scenario.node[3].nic.mac1609_4 headerLength 0bit
attr unit bit
par scenario.node[3].nic.mac1609_4 address "\"auto\""
par scenario.node[3].nic.mac1609_4 useServiceChannel false
par scenario.node[3].nic.mac1609_4 serviceChannel 1
par scenario.node[3].nic.mac1609_4 bitrate 18000000bps
attr unit bps
par scenario.node[3].nic.mac1609_4 syncOffset 0.0003s
attr unit s
par scenario.node[3].nic.mac1609_4 txPower 20mW
attr unit mW
par scenario.node[3].nic.mac1609_4 queueSize 0
par scenario.node[3].nic.mac1609_4 dot11RTSThreshold 12000bit
attr unit bit
par scenario.node[3].nic.mac1609_4 dot11ShortRetryLimit 7
par scenario.node[3].nic.mac1609_4 dot11LongRetryLimit 4
par scenario.node[3].nic.mac1609_4 ackLength 112bit
attr unit bit
par scenario.node[3].nic.mac1609_4 useAcks false
par scenario.node[3].nic.mac1609_4 frameErrorRate 0
par scenario.node[3].nic.mac1609_4 ackErrorRate 0
scalar scenario.node[3].nic.mac1609_4 ReceivedUnicastPackets 0
scalar scenario.node[3].nic.mac1609_4 ReceivedBroadcasts 0
scalar scenario.node[3].nic.mac1609_4 SentPackets 0
scalar scenario.node[3].nic.mac1609_4 SentAcknowledgements 0
scalar scenario.node[3].nic.mac1609_4 RetriesExceeded 0
scalar scenario.node[3].nic.mac1609_4 SNIRLostPackets 5
scalar scenario.node[3].nic.mac1609_4 RXTXLostPackets 0
scalar scenario.node[3].nic.mac1609_4 TotalLostPackets 5
scalar scenario.node[3].nic.mac1609_4 DroppedPacketsInMac 0
scalar scenario.node[3].nic.mac1609_4 TooLittleTime 0
scalar scenario.node[3].nic.mac1609_4 TimesIntoBackoff 0
scalar scenario.node[3].nic.mac1609_4 SlotsBackoff 0
scalar scenario.node[3].nic.mac1609_4 NumInternalContention 0
scalar scenario.node[3].nic.mac1609_4 totalBusyTime 0.00144
scalar scenario.node[3].nic.mac1609_4 retriesExceeded:count 0
attr recordingmode count
attr source org_car2x_veins_modules_mac_sigRetriesExceeded
scalar scenario.node[3].nic.mac1609_4 sentAcks:count 0
attr recordingmode count
attr source org_car2x_veins_modules_mac_sigSentAck
scalar scenario.node[3].nic.mac1609_4 sentPackets:count 0
attr recordingmode count
attr source org_car2x_veins_modules_mac_sigSentPacket
scalar scenario.node[3].nic.mac1609_4 collisions:count 0
attr recordingmode count
attr source org_car2x_veins_modules_mac_sigCollision
scalar scenario.node[3].nic.mac1609_4 channelBusy:timeavg 0.00033989907962053
attr recordingmode timeavg
attr source org_car2x_veins_modules_mac_sigChannelBusy
par scenario.node[3].nic typename "\"org.car2x.veins.modules.nic.Nic80211p\""
par scenario.node[3].nic connectionManagerName "\"connectionManager\""
par scenario.node[3].veinsmobility typename "\"org.car2x.veins.modules.mobility.traci.TraCIMobility\""
par scenario.node[3].veinsmobility notAffectedByHostState true
par scenario.node[3].veinsmobility x 0
par scenario.node[3].veinsmobility y 0
par scenario.node[3].veinsmobility z 0
par scenario.node[3].veinsmobility xOrientation 1
par scenario.node[3].veinsmobility yOrientation 0
par scenario.node[3].veinsmobility zOrientation 0
par scenario.node[3].veinsmobility hostPositionOffset 0m
attr unit m
par scenario.node[3].veinsmobility setHostSpeed true
par scenario.node[3].veinsmobility accidentCount 0
par scenario.node[3].veinsmobility accidentStart 44.33s
attr unit s
par scenario.node[3].veinsmobility accidentDuration "uniform(30s, 60s)"
attr unit s
par scenario.node[3].veinsmobility accidentInterval "uniform(30s, 60s)"
attr unit s
scalar scenario.node[3].veinsmobility startTime 1
scalar scenario.node[3].veinsmobility totalTime 4
scalar scenario.node[3].veinsmobility stopTime 5.236551630583
scalar scenario.node[3].veinsmobility minSpeed 2.1130978513975
scalar scenario.node[3].veinsmobility maxSpeed 7.4031981429318
scalar scenario.node[3].veinsmobility totalDistance 18.234713101971
scalar scenario.node[3].veinsmobility totalCO2Emission 11.419057439543
par scenario.node[3] typename "\"org.car2x.veins.nodes.Car\""
par scenario.node[3] applType "\"test.myveins.TraCI\""
par scenario.node[3] nicType "\"Nic80211p\""
par scenario.node[3] veinsmobilityType "\"org.car2x.veins.modules.mobility.traci.TraCIMobility\""
par scenario.node[4].appl typename "\"test.myveins.TraCI\""
par scenario.node[4].appl headerLength 4096bit
attr unit bit
par scenario.node[4].appl sendBeacons true
par scenario.node[4].appl beaconLengthBits 256bit
attr unit bit
par scenario.node[4].appl beaconUserPriority 7
par scenario.node[4].appl beaconInterval 10s
attr unit s
par scenario.node[4].appl dataLengthBits 1024bit
attr unit bit
par scenario.node[4].appl dataOnSch false
par scenario.node[4].appl dataUserPriority 7
par scenario.node[4].appl avoidBeaconSynchronization true
par scenario.node[4].appl sendWSA false
par scenario.node[4].appl wsaLengthBits 250bit
attr unit bit
par scenario.node[4].appl wsaInterval 1s
attr unit s
par scenario.node[4].appl appName "\"My first Veins App!\""
scalar scenario.node[4].appl generatedWSMs 0
scalar scenario.node[4].appl receivedWSMs 0
scalar scenario.node[4].appl generatedBSMs 1
scalar scenario.node[4].appl receivedBSMs 0
scalar scenario.node[4].appl generatedWSAs 0
scalar scenario.node[4].appl receivedWSAs 0
par scenario.node[4].nic.phy80211p typename "\"org.car2x.veins.modules.phy.PhyLayer80211p\""
par scenario.node[4].nic.phy80211p recordStats false
par scenario.node[4].nic.phy80211p usePropagationDelay true
par scenario.node[4].nic.phy80211p noiseFloor -98dBm
attr unit dBm
par scenario.node[4].nic.phy80211p useNoiseFloor true
par scenario.node[4].nic.phy80211p antenna "<root>...</root> at content:1"
par scenario.node[4].nic.phy80211p antennaOffsetX 0m
attr unit m
par scenario.node[4].nic.phy80211p antennaOffsetY 0m
attr unit m
par scenario.node[4].nic.phy80211p antennaOffsetZ 1.895m
attr unit m
par scenario.node[4].nic.phy80211p antennaOffsetYaw 0rad
attr unit rad
par scenario.node[4].nic.phy80211p analogueModels "<root>...</root> at /home/mike/Documents/dsrc_cv2x/omnetpp-6.0/samples/test/simulations/traci//config.xml:34"
par scenario.node[4].nic.phy80211p decider "<root>...</root> at /home/mike/Documents/dsrc_cv2x/omnetpp-6.0/samples/test/simulations/traci//config.xml:34"
par scenario.node[4].nic.phy80211p minPowerLevel -110dBm
attr unit dBm
par scenario.node[4].nic.phy80211p timeRXToTX 0s
attr unit s
par scenario.node[4].nic.phy80211p timeRXToSleep 0s
attr unit s
par scenario.node[4].nic.phy80211p timeTXToRX 0s
attr unit s
par scenario.node[4].nic.phy80211p timeTXToSleep 0s
attr unit s
par scenario.node[4].nic.phy80211p timeSleepToRX 0s
attr unit s
par scenario.node[4].nic.phy80211p timeSleepToTX 0s
attr unit s
par scenario.node[4].nic.phy80211p initialRadioState 0
par scenario.node[4].nic.phy80211p radioMinAtt 1
par scenario.node[4].nic.phy80211p radioMaxAtt 0
par scenario.node[4].nic.phy80211p nbRadioChannels 1
par scenario.node[4].nic.phy80211p initialRadioChannel 0
par scenario.node[4].nic.phy80211p ccaThreshold -65dBm
attr unit dBm
par scenario.node[4].nic.phy80211p collectCollisionStatistics false
par scenario.node[4].nic.phy80211p allowTxDuringRx false
scalar scenario.node[4].nic.phy80211p busyTime 0.00020393944777232
par scenario.node[4].nic.mac1609_4 typename "\"org.car2x.veins.modules.mac.ieee80211p.Mac1609_4\""
par scenario.node[4].nic.mac1609_4 notAffectedByHostState false
par scenario.node[4].nic.mac1609_4 headerLength 0bit
attr unit bit
par scenario.node[4].nic.mac1609_4 address "\"auto\""
par scenario.node[4].nic.mac1609_4 useServiceChannel false
par scenario.node[4].nic.mac1609_4 serviceChannel 1
par scenario.node[4].nic.mac1609_4 bitrate 18000000bps
attr unit bps
par scenario.node[4].nic.mac1609_4 syncOffset 0.0003s
attr unit s
par scenario.node[4].nic.mac1609_4 txPower 20mW
attr unit mW
par scenario.node[4].nic.mac1609_4 queueSize 0
par scenario.node[4].nic.mac1609_4 dot11RTSThreshold 12000bit
attr unit bit
par scenario.node[4].nic.mac1609_4 dot11ShortRetryLimit 7
par scenario.node[4].nic.mac1609_4 dot11LongRetryLimit 4
par scenario.node[4].nic.mac1609_4 ackLength 112bit
attr unit bit
par scenario.node[4].nic.mac1609_4 useAcks false
par scenario.node[4].nic.mac1609_4 frameErrorRate 0
par scenario.node[4].nic.mac1609_4 ackErrorRate 0
scalar scenario.node[4].nic.mac1609_4 ReceivedUnicastPackets 0
scalar scenario.node[4].nic.mac1609_4 ReceivedBroadcasts 0
scalar scenario.node[4].nic.mac1609_4 SentPackets 1
scalar scenario.node[4].nic.mac1609_4 SentAcknowledgements 0
scalar scenario.node[4].nic.mac1609_4 RetriesExceeded 0
scalar scenario.node[4].nic.mac1609_4 SNIRLostPackets 3
scalar scenario.node[4].nic.mac1609_4 RXTXLostPackets 0
scalar scenario.node[4].nic.mac1609_4 TotalLostPackets 3
scalar scenario.node[4].nic.mac1609_4 DroppedPacketsInMac 0
scalar scenario.node[4].nic.mac1609_4 TooLittleTime 0
scalar scenario.node[4].nic.mac1609_4 TimesIntoBackoff 1
scalar scenario.node[4].nic.mac1609_4 SlotsBackoff 3
scalar scenario.node[4].nic.mac1609_4 NumInternalContention 0
scalar scenario.node[4].nic.mac1609_4 totalBusyTime 0.001153
scalar scenario.node[4].nic.mac1609_4 retriesExceeded:count 0
attr recordingmode count
attr source org_car2x_veins_modules_mac_sigRetriesExceeded
scalar scenario.node[4].nic.mac1609_4 sentAcks:count 0
attr recordingmode count
attr source org_car2x_veins_modules_mac_sigSentAck
scalar scenario.node[4].nic.mac1609_4 sentPackets:count 1
attr recordingmode count
attr source org_car2x_veins_modules_mac_sigSentPacket
scalar scenario.node[4].nic.mac1609_4 collisions:count 0
attr recordingmode count
attr source org_car2x_veins_modules_mac_sigCollision
scalar scenario.node[4].nic.mac1609_4 channelBusy:timeavg 0.00027215530472394
attr recordingmode timeavg
attr source org_car2x_veins_modules_mac_sigChannelBusy
par scenario.node[4].nic typename "\"org.car2x.veins.modules.nic.Nic80211p\""
par scenario.node[4].nic connectionManagerName "\"connectionManager\""
par scenario.node[4].veinsmobility typename "\"org.car2x.veins.modules.mobility.traci.TraCIMobility\""
par scenario.node[4].veinsmobility notAffectedByHostState true
par scenario.node[4].veinsmobility x 0
par scenario.node[4].veinsmobility y 0
par scenario.node[4].veinsmobility z 0
par scenario.node[4].veinsmobility xOrientation 1
par scenario.node[4].veinsmobility yOrientation 0
par scenario.node[4].veinsmobility zOrientation 0
par scenario.node[4].veinsmobility hostPositionOffset 0m
attr unit m
par scenario.node[4].veinsmobility setHostSpeed true
par scenario.node[4].veinsmobility accidentCount 0
par scenario.node[4].veinsmobility accidentStart 47.0413s
attr unit s
par scenario.node[4].veinsmobility accidentDuration "uniform(30s, 60s)"
attr unit s
par scenario.node[4].veinsmobility accidentInterval "uniform(30s, 60s)"
attr unit s
scalar scenario.node[4].veinsmobility startTime 1
scalar scenario.node[4].veinsmobility totalTime 4
scalar scenario.node[4].veinsmobility stopTime 5.236551630583
scalar scenario.node[4].veinsmobility minSpeed 1.8865424470045
scalar scenario.node[4].veinsmobility maxSpeed 6.8885528039187
scalar scenario.node[4].veinsmobility totalDistance 17.894539385912
scalar scenario.node[4].veinsmobility totalCO2Emission 10.451284901664
par scenario.node[4] typename "\"org.car2x.veins.nodes.Car\""
par scenario.node[4] applType "\"test.myveins.TraCI\""
par scenario.node[4] nicType "\"Nic80211p\""
par scenario.node[4] veinsmobilityType "\"org.car2x.veins.modules.mobility.traci.TraCIMobility\""
par scenario.node[5].appl typename "\"test.myveins.TraCI\""
par scenario.node[5].appl headerLength 4096bit
attr unit bit
par scenario.node[5].appl sendBeacons true
par scenario.node[5].appl beaconLengthBits 256bit
attr unit bit
par scenario.node[5].appl beaconUserPriority 7
par scenario.node[5].appl beaconInterval 10s
attr unit s
par scenario.node[5].appl dataLengthBits 1024bit
attr unit bit
par scenario.node[5].appl dataOnSch false
par scenario.node[5].appl dataUserPriority 7
par scenario.node[5].appl avoidBeaconSynchronization true
par scenario.node[5].appl sendWSA false
par scenario.node[5].appl wsaLengthBits 250bit
attr unit bit
par scenario.node[5].appl wsaInterval 1s
attr unit s
par scenario.node[5].appl appName "\"My first Veins App!\""
scalar scenario.node[5].appl generatedWSMs 0
scalar scenario.node[5].appl receivedWSMs 0
scalar scenario.node[5].appl generatedBSMs 1
scalar scenario.node[5].appl receivedBSMs 0
scalar scenario.node[5].appl generatedWSAs 0
scalar scenario.node[5].appl receivedWSAs 0
par scenario.node[5].nic.phy80211p typename "\"org.car2x.veins.modules.phy.PhyLayer80211p\""
par scenario.node[5].nic.phy80211p recordStats false
par scenario.node[5].nic.phy80211p usePropagationDelay true
par scenario.node[5].nic.phy80211p noiseFloor -98dBm
attr unit dBm
par scenario.node[5].nic.phy80211p useNoiseFloor true
par scenario.node[5].nic.phy80211p antenna "<root>...</root> at content:1"
par scenario.node[5].nic.phy80211p antennaOffsetX 0m
attr unit m
par scenario.node[5].nic.phy80211p antennaOffsetY 0m
attr unit m
par scenario.node[5].nic.phy80211p antennaOffsetZ 1.895m
attr unit m
par scenario.node[5].nic.phy80211p antennaOffsetYaw 0rad
attr unit rad
par scenario.node[5].nic.phy80211p analogueModels "<root>...</root> at /home/mike/Documents/dsrc_cv2x/omnetpp-6.0/samples/test/simulations/traci//config.xml:34"
par scenario.node[5].nic.phy80211p decider "<root>...</root> at /home/mike/Documents/dsrc_cv2x/omnetpp-6.0/samples/test/simulations/traci//config.xml:34"
par scenario.node[5].nic.phy80211p minPowerLevel -110dBm
attr unit dBm
par scenario.node[5].nic.phy80211p timeRXToTX 0s
attr unit s
par scenario.node[5].nic.phy80211p timeRXToSleep 0s
attr unit s
par scenario.node[5].nic.phy80211p timeTXToRX 0s
attr unit s
par scenario.node[5].nic.phy80211p timeTXToSleep 0s
attr unit s
par scenario.node[5].nic.phy80211p timeSleepToRX 0s
attr unit s
par scenario.node[5].nic.phy80211p timeSleepToTX 0s
attr unit s
par scenario.node[5].nic.phy80211p initialRadioState 0
par scenario.node[5].nic.phy80211p radioMinAtt 1
par scenario.node[5].nic.phy80211p radioMaxAtt 0
par scenario.node[5].nic.phy80211p nbRadioChannels 1
par scenario.node[5].nic.phy80211p initialRadioChannel 0
par scenario.node[5].nic.phy80211p ccaThreshold -65dBm
attr unit dBm
par scenario.node[5].nic.phy80211p collectCollisionStatistics false
par scenario.node[5].nic.phy80211p allowTxDuringRx false
scalar scenario.node[5].nic.phy80211p busyTime 0.00020393944777232
par scenario.node[5].nic.mac1609_4 typename "\"org.car2x.veins.modules.mac.ieee80211p.Mac1609_4\""
par scenario.node[5].nic.mac1609_4 notAffectedByHostState false
par scenario.node[5].nic.mac1609_4 headerLength 0bit
attr unit bit
par scenario.node[5].nic.mac1609_4 address "\"auto\""
par scenario.node[5].nic.mac1609_4 useServiceChannel false
par scenario.node[5].nic.mac1609_4 serviceChannel 1
par scenario.node[5].nic.mac1609_4 bitrate 18000000bps
attr unit bps
par scenario.node[5].nic.mac1609_4 syncOffset 0.0003s
attr unit s
par scenario.node[5].nic.mac1609_4 txPower 20mW
attr unit mW
par scenario.node[5].nic.mac1609_4 queueSize 0
par scenario.node[5].nic.mac1609_4 dot11RTSThreshold 12000bit
attr unit bit
par scenario.node[5].nic.mac1609_4 dot11ShortRetryLimit 7
par scenario.node[5].nic.mac1609_4 dot11LongRetryLimit 4
par scenario.node[5].nic.mac1609_4 ackLength 112bit
attr unit bit
par scenario.node[5].nic.mac1609_4 useAcks false
par scenario.node[5].nic.mac1609_4 frameErrorRate 0
par scenario.node[5].nic.mac1609_4 ackErrorRate 0
scalar scenario.node[5].nic.mac1609_4 ReceivedUnicastPackets 0
scalar scenario.node[5].nic.mac1609_4 ReceivedBroadcasts 0
scalar scenario.node[5].nic.mac1609_4 SentPackets 1
scalar scenario.node[5].nic.mac1609_4 SentAcknowledgements 0
scalar scenario.node[5].nic.mac1609_4 RetriesExceeded 0
scalar scenario.node[5].nic.mac1609_4 SNIRLostPackets 3
scalar scenario.node[5].nic.mac1609_4 RXTXLostPackets 0
scalar scenario.node[5].nic.mac1609_4 TotalLostPackets 3
scalar scenario.node[5].nic.mac1609_4 DroppedPacketsInMac 0
scalar scenario.node[5].nic.mac1609_4 TooLittleTime 0
scalar scenario.node[5].nic.mac1609_4 TimesIntoBackoff 1
scalar scenario.node[5].nic.mac1609_4 SlotsBackoff 3
scalar scenario.node[5].nic.mac1609_4 NumInternalContention 0
scalar scenario.node[5].nic.mac1609_4 totalBusyTime 0.001153
scalar scenario.node[5].nic.mac1609_4 retriesExceeded:count 0
attr recordingmode count
attr source org_car2x_veins_modules_mac_sigRetriesExceeded
scalar scenario.node[5].nic.mac1609_4 sentAcks:count 0
attr recordingmode count
attr source org_car2x_veins_modules_mac_sigSentAck
scalar scenario.node[5].nic.mac1609_4 sentPackets:count 1
attr recordingmode count
attr source org_car2x_veins_modules_mac_sigSentPacket
scalar scenario.node[5].nic.mac1609_4 collisions:count 0
attr recordingmode count
attr source org_car2x_veins_modules_mac_sigCollision
scalar scenario.node[5].nic.mac1609_4 channelBusy:timeavg 0.00027215530472393
attr recordingmode timeavg
attr source org_car2x_veins_modules_mac_sigChannelBusy
par scenario.node[5].nic typename "\"org.car2x.veins.modules.nic.Nic80211p\""
par scenario.node[5].nic connectionManagerName "\"connectionManager\""
par scenario.node[5].veinsmobility typename "\"org.car2x.veins.modules.mobility.traci.TraCIMobility\""
par scenario.node[5].veinsmobility notAffectedByHostState true
par scenario.node[5].veinsmobility x 0
par scenario.node[5].veinsmobility y 0
par scenario.node[5].veinsmobility z 0
par scenario.node[5].veinsmobility xOrientation 1
par scenario.node[5].veinsmobility yOrientation 0
par scenario.node[5].veinsmobility zOrientation 0
par scenario.node[5].veinsmobility hostPositionOffset 0m
attr unit m
par scenario.node[5].veinsmobility setHostSpeed true
par scenario.node[5].veinsmobility accidentCount 0
par scenario.node[5].veinsmobility accidentStart 40.1219s
attr unit s
par scenario.node[5].veinsmobility accidentDuration "uniform(30s, 60s)"
attr unit s
par scenario.node[5].veinsmobility accidentInterval "uniform(30s, 60s)"
attr unit s
scalar scenario.node[5].veinsmobility startTime 1
scalar scenario.node[5].veinsmobility totalTime 4
scalar scenario.node[5].veinsmobility stopTime 5.236551630583
scalar scenario.node[5].veinsmobility minSpeed 1.8890440943418
scalar scenario.node[5].veinsmobility maxSpeed 7.5914411865408
scalar scenario.node[5].veinsmobility totalDistance 20.027507011639
scalar scenario.node[5].veinsmobility totalCO2Emission 12.180171220646
par scenario.node[5] typename "\"org.car2x.veins.nodes.Car\""
par scenario.node[5] applType "\"test.myveins.TraCI\""
par scenario.node[5] nicType "\"Nic80211p\""
par scenario.node[5] veinsmobilityType "\"org.car2x.veins.modules.mobility.traci.TraCIMobility\""
par scenario.node[6].appl typename "\"test.myveins.TraCI\""
par scenario.node[6].appl headerLength 4096bit
attr unit bit
par scenario.node[6].appl sendBeacons true
par scenario.node[6].appl beaconLengthBits 256bit
attr unit bit
par scenario.node[6].appl beaconUserPriority 7
par scenario.node[6].appl beaconInterval 10s
attr unit s
par scenario.node[6].appl dataLengthBits 1024bit
attr unit bit
par scenario.node[6].appl dataOnSch false
par scenario.node[6].appl dataUserPriority 7
par scenario.node[6].appl avoidBeaconSynchronization true
par scenario.node[6].appl sendWSA false
par scenario.node[6].appl wsaLengthBits 250bit
attr unit bit
par scenario.node[6].appl wsaInterval 1s
attr unit s
par scenario.node[6].appl appName "\"My first Veins App!\""
scalar scenario.node[6].appl generatedWSMs 0
scalar scenario.node[6].appl receivedWSMs 0
scalar scenario.node[6].appl generatedBSMs 0
scalar scenario.node[6].appl receivedBSMs 0
scalar scenario.node[6].appl generatedWSAs 0
scalar scenario.node[6].appl receivedWSAs 0
par scenario.node[6].nic.phy80211p typename "\"org.car2x.veins.modules.phy.PhyLayer80211p\""
par scenario.node[6].nic.phy80211p recordStats false
par scenario.node[6].nic.phy80211p usePropagationDelay true
par scenario.node[6].nic.phy80211p noiseFloor -98dBm
attr unit dBm
par scenario.node[6].nic.phy80211p useNoiseFloor true
par scenario.node[6].nic.phy80211p antenna "<root>...</root> at content:1"
par scenario.node[6].nic.phy80211p antennaOffsetX 0m
attr unit m
par scenario.node[6].nic.phy80211p antennaOffsetY 0m
attr unit m
par scenario.node[6].nic.phy80211p antennaOffsetZ 1.895m
attr unit m
par scenario.node[6].nic.phy80211p antennaOffsetYaw 0rad
attr unit rad
par scenario.node[6].nic.phy80211p analogueModels "<root>...</root> at /home/mike/Documents/dsrc_cv2x/omnetpp-6.0/samples/test/simulations/traci//config.xml:34"
par scenario.node[6].nic.phy80211p decider "<root>...</root> at /home/mike/Documents/dsrc_cv2x/omnetpp-6.0/samples/test/simulations/traci//config.xml:34"
par scenario.node[6].nic.phy80211p minPowerLevel -110dBm
attr unit dBm
par scenario.node[6].nic.phy80211p timeRXToTX 0s
attr unit s
par scenario.node[6].nic.phy80211p timeRXToSleep 0s
attr unit s
par scenario.node[6].nic.phy80211p timeTXToRX 0s
attr unit s
par scenario.node[6].nic.phy80211p timeTXToSleep 0s
attr unit s
par scenario.node[6].nic.phy80211p timeSleepToRX 0s
attr unit s
par scenario.node[6].nic.phy80211p timeSleepToTX 0s
attr unit s
par scenario.node[6].nic.phy80211p initialRadioState 0
par scenario.node[6].nic.phy80211p radioMinAtt 1
par scenario.node[6].nic.phy80211p radioMaxAtt 0
par scenario.node[6].nic.phy80211p nbRadioChannels 1
par scenario.node[6].nic.phy80211p initialRadioChannel 0
par scenario.node[6].nic.phy80211p ccaThreshold -65dBm
attr unit dBm
par scenario.node[6].nic.phy80211p collectCollisionStatistics false
par scenario.node[6].nic.phy80211p allowTxDuringRx false
scalar scenario.node[6].nic.phy80211p busyTime 0.00027191926369642
par scenario.node[6].nic.mac1609_4 typename "\"org.car2x.veins.modules.mac.ieee80211p.Mac1609_4\""
par scenario.node[6].nic.mac1609_4 notAffectedByHostState false
par scenario.node[6].nic.mac1609_4 headerLength 0bit
attr unit bit
par scenario.node[6].nic.mac1609_4 address "\"auto\""
par scenario.node[6].nic.mac1609_4 useServiceChannel false
par scenario.node[6].nic.mac1609_4 serviceChannel 1
par scenario.node[6].nic.mac1609_4 bitrate 18000000bps
attr unit bps
par scenario.node[6].nic.mac1609_4 syncOffset 0.0003s
attr unit s
par scenario.node[6].nic.mac1609_4 txPower 20mW
attr unit mW
par scenario.node[6].nic.mac1609_4 queueSize 0
par scenario.node[6].nic.mac1609_4 dot11RTSThreshold 12000bit
attr unit bit
par scenario.node[6].nic.mac1609_4 dot11ShortRetryLimit 7
par scenario.node[6].nic.mac1609_4 dot11LongRetryLimit 4
par scenario.node[6].nic.mac1609_4 ackLength 112bit
attr unit bit
par scenario.node[6].nic.mac1609_4 useAcks false
par scenario.node[6].nic.mac1609_4 frameErrorRate 0
par scenario.node[6].nic.mac1609_4 ackErrorRate 0
scalar scenario.node[6].nic.mac1609_4 ReceivedUnicastPackets 0
scalar scenario.node[6].nic.mac1609_4 ReceivedBroadcasts 0
scalar scenario.node[6].nic.mac1609_4 SentPackets 0
scalar scenario.node[6].nic.mac1609_4 SentAcknowledgements 0
scalar scenario.node[6].nic.mac1609_4 RetriesExceeded 0
scalar scenario.node[6].nic.mac1609_4 SNIRLostPackets 4
scalar scenario.node[6].nic.mac1609_4 RXTXLostPackets 0
scalar scenario.node[6].nic.mac1609_4 TotalLostPackets 4
scalar scenario.node[6].nic.mac1609_4 DroppedPacketsInMac 0
scalar scenario.node[6].nic.mac1609_4 TooLittleTime 0
scalar scenario.node[6].nic.mac1609_4 TimesIntoBackoff 0
scalar scenario.node[6].nic.mac1609_4 SlotsBackoff 0
scalar scenario.node[6].nic.mac1609_4 NumInternalContention 0
scalar scenario.node[6].nic.mac1609_4 totalBusyTime 0.001152
scalar scenario.node[6].nic.mac1609_4 retriesExceeded:count 0
attr recordingmode count
attr source org_car2x_veins_modules_mac_sigRetriesExceeded
scalar scenario.node[6].nic.mac1609_4 sentAcks:count 0
attr recordingmode count
attr source org_car2x_veins_modules_mac_sigSentAck
scalar scenario.node[6].nic.mac1609_4 sentPackets:count 0
attr recordingmode count
attr source org_car2x_veins_modules_mac_sigSentPacket
scalar scenario.node[6].nic.mac1609_4 collisions:count 0
attr recordingmode count
attr source org_car2x_veins_modules_mac_sigCollision
scalar scenario.node[6].nic.mac1609_4 channelBusy:timeavg 0.00027191926369642
attr recordingmode timeavg
attr source org_car2x_veins_modules_mac_sigChannelBusy
par scenario.node[6].nic typename "\"org.car2x.veins.modules.nic.Nic80211p\""
par scenario.node[6].nic connectionManagerName "\"connectionManager\""
par scenario.node[6].veinsmobility typename "\"org.car2x.veins.modules.mobility.traci.TraCIMobility\""
par scenario.node[6].veinsmobility notAffectedByHostState true
par scenario.node[6].veinsmobility x 0
par scenario.node[6].veinsmobility y 0
par scenario.node[6].veinsmobility z 0
par scenario.node[6].veinsmobility xOrientation 1
par scenario.node[6].veinsmobility yOrientation 0
par scenario.node[6].veinsmobility zOrientation 0
par scenario.node[6].veinsmobility hostPositionOffset 0m
attr unit m
par scenario.node[6].veinsmobility setHostSpeed true
par scenario.node[6].veinsmobility accidentCount 0
par scenario.node[6].veinsmobility accidentStart 54.9786s
attr unit s
par scenario.node[6].veinsmobility accidentDuration "uniform(30s, 60s)"
attr unit s
par scenario.node[6].veinsmobility accidentInterval "uniform(30s, 60s)"
attr unit s
scalar scenario.node[6].veinsmobility startTime 1
scalar scenario.node[6].veinsmobility totalTime 4
scalar scenario.node[6].veinsmobility stopTime 5.236551630583
scalar scenario.node[6].veinsmobility minSpeed 2.2769368349575
scalar scenario.node[6].veinsmobility maxSpeed 8.8466016283026
scalar scenario.node[6].veinsmobility totalDistance 25.396622729528
scalar scenario.node[6].veinsmobility totalCO2Emission 14.98587888826
par scenario.node[6] typename "\"org.car2x.veins.nodes.Car\""
par scenario.node[6] applType "\"test.myveins.TraCI\""
par scenario.node[6] nicType "\"Nic80211p\""
par scenario.node[6] veinsmobilityType "\"org.car2x.veins.modules.mobility.traci.TraCIMobility\""
par scenario.node[7].appl typename "\"test.myveins.TraCI\""
par scenario.node[7].appl headerLength 4096bit
attr unit bit
par scenario.node[7].appl sendBeacons true
par scenario.node[7].appl beaconLengthBits 256bit
attr unit bit
par scenario.node[7].appl beaconUserPriority 7
par scenario.node[7].appl beaconInterval 10s
attr unit s
par scenario.node[7].appl dataLengthBits 1024bit
attr unit bit
par scenario.node[7].appl dataOnSch false
par scenario.node[7].appl dataUserPriority 7
par scenario.node[7].appl avoidBeaconSynchronization true
par scenario.node[7].appl sendWSA false
par scenario.node[7].appl wsaLengthBits 250bit
attr unit bit
par scenario.node[7].appl wsaInterval 1s
attr unit s
par scenario.node[7].appl appName "\"My first Veins App!\""
scalar scenario.node[7].appl generatedWSMs 0
scalar scenario.node[7].appl receivedWSMs 0
scalar scenario.node[7].appl generatedBSMs 0
scalar scenario.node[7].appl receivedBSMs 0
scalar scenario.node[7].appl generatedWSAs 0
scalar scenario.node[7].appl receivedWSAs 0
par scenario.node[7].nic.phy80211p typename "\"org.car2x.veins.modules.phy.PhyLayer80211p\""
par scenario.node[7].nic.phy80211p recordStats false
par scenario.node[7].nic.phy80211p usePropagationDelay true
par scenario.node[7].nic.phy80211p noiseFloor -98dBm
attr unit dBm
par scenario.node[7].nic.phy80211p useNoiseFloor true
par scenario.node[7].nic.phy80211p antenna "<root>...</root> at content:1"
par scenario.node[7].nic.phy80211p antennaOffsetX 0m
attr unit m
par scenario.node[7].nic.phy80211p antennaOffsetY 0m
attr unit m
par scenario.node[7].nic.phy80211p antennaOffsetZ 1.895m
attr unit m
par scenario.node[7].nic.phy80211p antennaOffsetYaw 0rad
attr unit rad
par scenario.node[7].nic.phy80211p analogueModels "<root>...</root> at /home/mike/Documents/dsrc_cv2x/omnetpp-6.0/samples/test/simulations/traci//config.xml:34"
par scenario.node[7].nic.phy80211p decider "<root>...</root> at /home/mike/Documents/dsrc_cv2x/omnetpp-6.0/samples/test/simulations/traci//config.xml:34"
par scenario.node[7].nic.phy80211p minPowerLevel -110dBm
attr unit dBm
par scenario.node[7].nic.phy80211p timeRXToTX 0s
attr unit s
par scenario.node[7].nic.phy80211p timeRXToSleep 0s
attr unit s
par scenario.node[7].nic.phy80211p timeTXToRX 0s
attr unit s
par scenario.node[7].nic.phy80211p timeTXToSleep 0s
attr unit s
par scenario.node[7].nic.phy80211p timeSleepToRX 0s
attr unit s
par scenario.node[7].nic.phy80211p timeSleepToTX 0s
attr unit s
par scenario.node[7].nic.phy80211p initialRadioState 0
par scenario.node[7].nic.phy80211p radioMinAtt 1
par scenario.node[7].nic.phy80211p radioMaxAtt 0
par scenario.node[7].nic.phy80211p nbRadioChannels 1
par scenario.node[7].nic.phy80211p initialRadioChannel 0
par scenario.node[7].nic.phy80211p ccaThreshold -65dBm
attr unit dBm
par scenario.node[7].nic.phy80211p collectCollisionStatistics false
par scenario.node[7].nic.phy80211p allowTxDuringRx false
scalar scenario.node[7].nic.phy80211p busyTime 0.00033989907962053
par scenario.node[7].nic.mac1609_4 typename "\"org.car2x.veins.modules.mac.ieee80211p.Mac1609_4\""
par scenario.node[7].nic.mac1609_4 notAffectedByHostState false
par scenario.node[7].nic.mac1609_4 headerLength 0bit
attr unit bit
par scenario.node[7].nic.mac1609_4 address "\"auto\""
par scenario.node[7].nic.mac1609_4 useServiceChannel false
par scenario.node[7].nic.mac1609_4 serviceChannel 1
par scenario.node[7].nic.mac1609_4 bitrate 18000000bps
attr unit bps
par scenario.node[7].nic.mac1609_4 syncOffset 0.0003s
attr unit s
par scenario.node[7].nic.mac1609_4 txPower 20mW
attr unit mW
par scenario.node[7].nic.mac1609_4 queueSize 0
par scenario.node[7].nic.mac1609_4 dot11RTSThreshold 12000bit
attr unit bit
par scenario.node[7].nic.mac1609_4 dot11ShortRetryLimit 7
par scenario.node[7].nic.mac1609_4 dot11LongRetryLimit 4
par scenario.node[7].nic.mac1609_4 ackLength 112bit
attr unit bit
par scenario.node[7].nic.mac1609_4 useAcks false
par scenario.node[7].nic.mac1609_4 frameErrorRate 0
par scenario.node[7].nic.mac1609_4 ackErrorRate 0
scalar scenario.node[7].nic.mac1609_4 ReceivedUnicastPackets 0
scalar scenario.node[7].nic.mac1609_4 ReceivedBroadcasts 0
scalar scenario.node[7].nic.mac1609_4 SentPackets 0
scalar scenario.node[7].nic.mac1609_4 SentAcknowledgements 0
scalar scenario.node[7].nic.mac1609_4 RetriesExceeded 0
scalar scenario.node[7].nic.mac1609_4 SNIRLostPackets 5
scalar scenario.node[7].nic.mac1609_4 RXTXLostPackets 0
scalar scenario.node[7].nic.mac1609_4 TotalLostPackets 5
scalar scenario.node[7].nic.mac1609_4 DroppedPacketsInMac 0
scalar scenario.node[7].nic.mac1609_4 TooLittleTime 0
scalar scenario.node[7].nic.mac1609_4 TimesIntoBackoff 0
scalar scenario.node[7].nic.mac1609_4 SlotsBackoff 0
scalar scenario.node[7].nic.mac1609_4 NumInternalContention 0
scalar scenario.node[7].nic.mac1609_4 totalBusyTime 0.00144
scalar scenario.node[7].nic.mac1609_4 retriesExceeded:count 0
attr recordingmode count
attr source org_car2x_veins_modules_mac_sigRetriesExceeded
scalar scenario.node[7].nic.mac1609_4 sentAcks:count 0
attr recordingmode count
attr source org_car2x_veins_modules_mac_sigSentAck
scalar scenario.node[7].nic.mac1609_4 sentPackets:count 0
attr recordingmode count
attr source org_car2x_veins_modules_mac_sigSentPacket
scalar scenario.node[7].nic.mac1609_4 collisions:count 0
attr recordingmode count
attr source org_car2x_veins_modules_mac_sigCollision
scalar scenario.node[7].nic.mac1609_4 channelBusy:timeavg 0.00033989907962053
attr recordingmode timeavg
attr source org_car2x_veins_modules_mac_sigChannelBusy
par scenario.node[7].nic typename "\"org.car2x.veins.modules.nic.Nic80211p\""
par scenario.node[7].nic connectionManagerName "\"connectionManager\""
par scenario.node[7].veinsmobility typename "\"org.car2x.veins.modules.mobility.traci.TraCIMobility\""
par scenario.node[7].veinsmobility notAffectedByHostState true
par scenario.node[7].veinsmobility x 0
par scenario.node[7].veinsmobility y 0
par scenario.node[7].veinsmobility z 0
par scenario.node[7].veinsmobility xOrientation 1
par scenario.node[7].veinsmobility yOrientation 0
par scenario.node[7].veinsmobility zOrientation 0
par scenario.node[7].veinsmobility hostPositionOffset 0m
attr unit m
par scenario.node[7].veinsmobility setHostSpeed true
par scenario.node[7].veinsmobility accidentCount 0
par scenario.node[7].veinsmobility accidentStart 56.1026s
attr unit s
par scenario.node[7].veinsmobility accidentDuration "uniform(30s, 60s)"
attr unit s
par scenario.node[7].veinsmobility accidentInterval "uniform(30s, 60s)"
attr unit s
scalar scenario.node[7].veinsmobility startTime 1
scalar scenario.node[7].veinsmobility totalTime 4
scalar scenario.node[7].veinsmobility stopTime 5.236551630583
scalar scenario.node[7].veinsmobility minSpeed 1.4771120201563
scalar scenario.node[7].veinsmobility maxSpeed 7.4155973286135
scalar scenario.node[7].veinsmobility totalDistance 17.195072477715
scalar scenario.node[7].veinsmobility totalCO2Emission 11.954299350252
par scenario.node[7] typename "\"org.car2x.veins.nodes.Car\""
par scenario.node[7] applType "\"test.myveins.TraCI\""
par scenario.node[7] nicType "\"Nic80211p\""
par scenario.node[7] veinsmobilityType "\"org.car2x.veins.modules.mobility.traci.TraCIMobility\""
par scenario.node[8].appl typename "\"test.myveins.TraCI\""
par scenario.node[8].appl headerLength 4096bit
attr unit bit
par scenario.node[8].appl sendBeacons true
par scenario.node[8].appl beaconLengthBits 256bit
attr unit bit
par scenario.node[8].appl beaconUserPriority 7
par scenario.node[8].appl beaconInterval 10s
attr unit s
par scenario.node[8].appl dataLengthBits 1024bit
attr unit bit
par scenario.node[8].appl dataOnSch false
par scenario.node[8].appl dataUserPriority 7
par scenario.node[8].appl avoidBeaconSynchronization true
par scenario.node[8].appl sendWSA false
par scenario.node[8].appl wsaLengthBits 250bit
attr unit bit
par scenario.node[8].appl wsaInterval 1s
attr unit s
par scenario.node[8].appl appName "\"My first Veins App!\""
scalar scenario.node[8].appl generatedWSMs 0
scalar scenario.node[8].appl receivedWSMs 0
scalar scenario.node[8].appl generatedBSMs 1
scalar scenario.node[8].appl receivedBSMs 0
scalar scenario.node[8].appl generatedWSAs 0
scalar scenario.node[8].appl receivedWSAs 0
par scenario.node[8].nic.phy80211p typename "\"org.car2x.veins.modules.phy.PhyLayer80211p\""
par scenario.node[8].nic.phy80211p recordStats false
par scenario.node[8].nic.phy80211p usePropagationDelay true
par scenario.node[8].nic.phy80211p noiseFloor -98dBm
attr unit dBm
par scenario.node[8].nic.phy80211p useNoiseFloor true
par scenario.node[8].nic.phy80211p antenna "<root>...</root> at content:1"
par scenario.node[8].nic.phy80211p antennaOffsetX 0m
attr unit m
par scenario.node[8].nic.phy80211p antennaOffsetY 0m
attr unit m
par scenario.node[8].nic.phy80211p antennaOffsetZ 1.895m
attr unit m
par scenario.node[8].nic.phy80211p antennaOffsetYaw 0rad
attr unit rad
par scenario.node[8].nic.phy80211p analogueModels "<root>...</root> at /home/mike/Documents/dsrc_cv2x/omnetpp-6.0/samples/test/simulations/traci//config.xml:34"
par scenario.node[8].nic.phy80211p decider "<root>...</root> at /home/mike/Documents/dsrc_cv2x/omnetpp-6.0/samples/test/simulations/traci//config.xml:34"
par scenario.node[8].nic.phy80211p minPowerLevel -110dBm
attr unit dBm
par scenario.node[8].nic.phy80211p timeRXToTX 0s
attr unit s
par scenario.node[8].nic.phy80211p timeRXToSleep 0s
attr unit s
par scenario.node[8].nic.phy80211p timeTXToRX 0s
attr unit s
par scenario.node[8].nic.phy80211p timeTXToSleep 0s
attr unit s
par scenario.node[8].nic.phy80211p timeSleepToRX 0s
attr unit s
par scenario.node[8].nic.phy80211p timeSleepToTX 0s
attr unit s
par scenario.node[8].nic.phy80211p initialRadioState 0
par scenario.node[8].nic.phy80211p radioMinAtt 1
par scenario.node[8].nic.phy80211p radioMaxAtt 0
par scenario.node[8].nic.phy80211p nbRadioChannels 1
par scenario.node[8].nic.phy80211p initialRadioChannel 0
par scenario.node[8].nic.phy80211p ccaThreshold -65dBm
attr unit dBm
par scenario.node[8].nic.phy80211p collectCollisionStatistics false
par scenario.node[8].nic.phy80211p allowTxDuringRx false
scalar scenario.node[8].nic.phy80211p busyTime 0.00027191926369642
par scenario.node[8].nic.mac1609_4 typename "\"org.car2x.veins.modules.mac.ieee80211p.Mac1609_4\""
par scenario.node[8].nic.mac1609_4 notAffectedByHostState false
par scenario.node[8].nic.mac1609_4 headerLength 0bit
attr unit bit
par scenario.node[8].nic.mac1609_4 address "\"auto\""
par scenario.node[8].nic.mac1609_4 useServiceChannel false
par scenario.node[8].nic.mac1609_4 serviceChannel 1
par scenario.node[8].nic.mac1609_4 bitrate 18000000bps
attr unit bps
par scenario.node[8].nic.mac1609_4 syncOffset 0.0003s
attr unit s
par scenario.node[8].nic.mac1609_4 txPower 20mW
attr unit mW
par scenario.node[8].nic.mac1609_4 queueSize 0
par scenario.node[8].nic.mac1609_4 dot11RTSThreshold 12000bit
attr unit bit
par scenario.node[8].nic.mac1609_4 dot11ShortRetryLimit 7
par scenario.node[8].nic.mac1609_4 dot11LongRetryLimit 4
par scenario.node[8].nic.mac1609_4 ackLength 112bit
attr unit bit
par scenario.node[8].nic.mac1609_4 useAcks false
par scenario.node[8].nic.mac1609_4 frameErrorRate 0
par scenario.node[8].nic.mac1609_4 ackErrorRate 0
scalar scenario.node[8].nic.mac1609_4 ReceivedUnicastPackets 0
scalar scenario.node[8].nic.mac1609_4 ReceivedBroadcasts 0
scalar scenario.node[8].nic.mac1609_4 SentPackets 1
scalar scenario.node[8].nic.mac1609_4 SentAcknowledgements 0
scalar scenario.node[8].nic.mac1609_4 RetriesExceeded 0
scalar scenario.node[8].nic.mac1609_4 SNIRLostPackets 4
scalar scenario.node[8].nic.mac1609_4 RXTXLostPackets 0
scalar scenario.node[8].nic.mac1609_4 TotalLostPackets 4
scalar scenario.node[8].nic.mac1609_4 DroppedPacketsInMac 0
scalar scenario.node[8].nic.mac1609_4 TooLittleTime 0
scalar scenario.node[8].nic.mac1609_4 TimesIntoBackoff 1
scalar scenario.node[8].nic.mac1609_4 SlotsBackoff 2
scalar scenario.node[8].nic.mac1609_4 NumInternalContention 0
scalar scenario.node[8].nic.mac1609_4 totalBusyTime 0.001441
scalar scenario.node[8].nic.mac1609_4 retriesExceeded:count 0
attr recordingmode count
attr source org_car2x_veins_modules_mac_sigRetriesExceeded
scalar scenario.node[8].nic.mac1609_4 sentAcks:count 0
attr recordingmode count
attr source org_car2x_veins_modules_mac_sigSentAck
scalar scenario.node[8].nic.mac1609_4 sentPackets:count 1
attr recordingmode count
attr source org_car2x_veins_modules_mac_sigSentPacket
scalar scenario.node[8].nic.mac1609_4 collisions:count 0
attr recordingmode count
attr source org_car2x_veins_modules_mac_sigCollision
scalar scenario.node[8].nic.mac1609_4 channelBusy:timeavg 0.00034013512064804
attr recordingmode timeavg
attr source org_car2x_veins_modules_mac_sigChannelBusy
par scenario.node[8].nic typename "\"org.car2x.veins.modules.nic.Nic80211p\""
par scenario.node[8].nic connectionManagerName "\"connectionManager\""
par scenario.node[8].veinsmobility typename "\"org.car2x.veins.modules.mobility.traci.TraCIMobility\""
par scenario.node[8].veinsmobility notAffectedByHostState true
par scenario.node[8].veinsmobility x 0
par scenario.node[8].veinsmobility y 0
par scenario.node[8].veinsmobility z 0
par scenario.node[8].veinsmobility xOrientation 1
par scenario.node[8].veinsmobility yOrientation 0
par scenario.node[8].veinsmobility zOrientation 0
par scenario.node[8].veinsmobility hostPositionOffset 0m
attr unit m
par scenario.node[8].veinsmobility setHostSpeed true
par scenario.node[8].veinsmobility accidentCount 0
par scenario.node[8].veinsmobility accidentStart 43.8444s
attr unit s
par scenario.node[8].veinsmobility accidentDuration "uniform(30s, 60s)"
attr unit s
par scenario.node[8].veinsmobility accidentInterval "uniform(30s, 60s)"
attr unit s
scalar scenario.node[8].veinsmobility startTime 1
scalar scenario.node[8].veinsmobility totalTime 4
scalar scenario.node[8].veinsmobility stopTime 5.236551630583
scalar scenario.node[8].veinsmobility minSpeed 1.8798766718246
scalar scenario.node[8].veinsmobility maxSpeed 8.5096253508236
scalar scenario.node[8].veinsmobility totalDistance 20.158148250984
scalar scenario.node[8].veinsmobility totalCO2Emission 14.384439230815
par scenario.node[8] typename "\"org.car2x.veins.nodes.Car\""
par scenario.node[8] applType "\"test.myveins.TraCI\""
par scenario.node[8] nicType "\"Nic80211p\""
par scenario.node[8] veinsmobilityType "\"org.car2x.veins.modules.mobility.traci.TraCIMobility\""
par scenario.node[9].appl typename "\"test.myveins.TraCI\""
par scenario.node[9].appl headerLength 4096bit
attr unit bit
par scenario.node[9].appl sendBeacons true
par scenario.node[9].appl beaconLengthBits 256bit
attr unit bit
par scenario.node[9].appl beaconUserPriority 7
par scenario.node[9].appl beaconInterval 10s
attr unit s
par scenario.node[9].appl dataLengthBits 1024bit
attr unit bit
par scenario.node[9].appl dataOnSch false
par scenario.node[9].appl dataUserPriority 7
par scenario.node[9].appl avoidBeaconSynchronization true
par scenario.node[9].appl sendWSA false
par scenario.node[9].appl wsaLengthBits 250bit
attr unit bit
par scenario.node[9].appl wsaInterval 1s
attr unit s
par scenario.node[9].appl appName "\"My first Veins App!\""
scalar scenario.node[9].appl generatedWSMs 0
scalar scenario.node[9].appl receivedWSMs 0
scalar scenario.node[9].appl generatedBSMs 0
scalar scenario.node[9].appl receivedBSMs 0
scalar scenario.node[9].appl generatedWSAs 0
scalar scenario.node[9].appl receivedWSAs 0
par scenario.node[9].nic.phy80211p typename "\"org.car2x.veins.modules.phy.PhyLayer80211p\""
par scenario.node[9].nic.phy80211p recordStats false
par scenario.node[9].nic.phy80211p usePropagationDelay true
par scenario.node[9].nic.phy80211p noiseFloor -98dBm
attr unit dBm
par scenario.node[9].nic.phy80211p useNoiseFloor true
par scenario.node[9].nic.phy80211p antenna "<root>...</root> at content:1"
par scenario.node[9].nic.phy80211p antennaOffsetX 0m
attr unit m
par scenario.node[9].nic.phy80211p antennaOffsetY 0m
attr unit m
par scenario.node[9].nic.phy80211p antennaOffsetZ 1.895m
attr unit m
par scenario.node[9].nic.phy80211p antennaOffsetYaw 0rad
attr unit rad
par scenario.node[9].nic.phy80211p analogueModels "<root>...</root> at /home/mike/Documents/dsrc_cv2x/omnetpp-6.0/samples/test/simulations/traci//config.xml:34"
par scenario.node[9].nic.phy80211p decider "<root>...</root> at /home/mike/Documents/dsrc_cv2x/omnetpp-6.0/samples/test/simulations/traci//config.xml:34"
par scenario.node[9].nic.phy80211p minPowerLevel -110dBm
attr unit dBm
par scenario.node[9].nic.phy80211p timeRXToTX 0s
attr unit s
par scenario.node[9].nic.phy80211p timeRXToSleep 0s
attr unit s
par scenario.node[9].nic.phy80211p timeTXToRX 0s
attr unit s
par scenario.node[9].nic.phy80211p timeTXToSleep 0s
attr unit s
par scenario.node[9].nic.phy80211p timeSleepToRX 0s
attr unit s
par scenario.node[9].nic.phy80211p timeSleepToTX 0s
attr unit s
par scenario.node[9].nic.phy80211p initialRadioState 0
par scenario.node[9].nic.phy80211p radioMinAtt 1
par scenario.node[9].nic.phy80211p radioMaxAtt 0
par scenario.node[9].nic.phy80211p nbRadioChannels 1
par scenario.node[9].nic.phy80211p initialRadioChannel 0
par scenario.node[9].nic.phy80211p ccaThreshold -65dBm
attr unit dBm
par scenario.node[9].nic.phy80211p collectCollisionStatistics false
par scenario.node[9].nic.phy80211p allowTxDuringRx false
scalar scenario.node[9].nic.phy80211p busyTime 0.00020393944777232
par scenario.node[9].nic.mac1609_4 typename "\"org.car2x.veins.modules.mac.ieee80211p.Mac1609_4\""
par scenario.node[9].nic.mac1609_4 notAffectedByHostState false
par scenario.node[9].nic.mac1609_4 headerLength 0bit
attr unit bit
par scenario.node[9].nic.mac1609_4 address "\"auto\""
par scenario.node[9].nic.mac1609_4 useServiceChannel false
par scenario.node[9].nic.mac1609_4 serviceChannel 1
par scenario.node[9].nic.mac1609_4 bitrate 18000000bps
attr unit bps
par scenario.node[9].nic.mac1609_4 syncOffset 0.0003s
attr unit s
par scenario.node[9].nic.mac1609_4 txPower 20mW
attr unit mW
par scenario.node[9].nic.mac1609_4 queueSize 0
par scenario.node[9].nic.mac1609_4 dot11RTSThreshold 12000bit
attr unit bit
par scenario.node[9].nic.mac1609_4 dot11ShortRetryLimit 7
par scenario.node[9].nic.mac1609_4 dot11LongRetryLimit 4
par scenario.node[9].nic.mac1609_4 ackLength 112bit
attr unit bit
par scenario.node[9].nic.mac1609_4 useAcks false
par scenario.node[9].nic.mac1609_4 frameErrorRate 0
par scenario.node[9].nic.mac1609_4 ackErrorRate 0
scalar scenario.node[9].nic.mac1609_4 ReceivedUnicastPackets 0
scalar scenario.node[9].nic.mac1609_4 ReceivedBroadcasts 0
scalar scenario.node[9].nic.mac1609_4 SentPackets 0
scalar scenario.node[9].nic.mac1609_4 SentAcknowledgements 0
scalar scenario.node[9].nic.mac1609_4 RetriesExceeded 0
scalar scenario.node[9].nic.mac1609_4 SNIRLostPackets 3
scalar scenario.node[9].nic.mac1609_4 RXTXLostPackets 0
scalar scenario.node[9].nic.mac1609_4 TotalLostPackets 3
scalar scenario.node[9].nic.mac1609_4 DroppedPacketsInMac 0
scalar scenario.node[9].nic.mac1609_4 TooLittleTime 0
scalar scenario.node[9].nic.mac1609_4 TimesIntoBackoff 0
scalar scenario.node[9].nic.mac1609_4 SlotsBackoff 0
scalar scenario.node[9].nic.mac1609_4 NumInternalContention 0
scalar scenario.node[9].nic.mac1609_4 totalBusyTime 0.000864
scalar scenario.node[9].nic.mac1609_4 retriesExceeded:count 0
attr recordingmode count
attr source org_car2x_veins_modules_mac_sigRetriesExceeded
scalar scenario.node[9].nic.mac1609_4 sentAcks:count 0
attr recordingmode count
attr source org_car2x_veins_modules_mac_sigSentAck
scalar scenario.node[9].nic.mac1609_4 sentPackets:count 0
attr recordingmode count
attr source org_car2x_veins_modules_mac_sigSentPacket
scalar scenario.node[9].nic.mac1609_4 collisions:count 0
attr recordingmode count
attr source org_car2x_veins_modules_mac_sigCollision
scalar scenario.node[9].nic.mac1609_4 channelBusy:timeavg 0.00020393944777232
attr recordingmode timeavg
attr source org_car2x_veins_modules_mac_sigChannelBusy
par scenario.node[9].nic typename "\"org.car2x.veins.modules.nic.Nic80211p\""
par scenario.node[9].nic connectionManagerName "\"connectionManager\""
par scenario.node[9].veinsmobility typename "\"org.car2x.veins.modules.mobility.traci.TraCIMobility\""
par scenario.node[9].veinsmobility notAffectedByHostState true
par scenario.node[9].veinsmobility x 0
par scenario.node[9].veinsmobility y 0
par scenario.node[9].veinsmobility z 0
par scenario.node[9].veinsmobility xOrientation 1
par scenario.node[9].veinsmobility yOrientation 0
par scenario.node[9].veinsmobility zOrientation 0
par scenario.node[9].veinsmobility hostPositionOffset 0m
attr unit m
par scenario.node[9].veinsmobility setHostSpeed true
par scenario.node[9].veinsmobility accidentCount 0
par scenario.node[9].veinsmobility accidentStart 51.619s
attr unit s
par scenario.node[9].veinsmobility accidentDuration "uniform(30s, 60s)"
attr unit s
par scenario.node[9].veinsmobility accidentInterval "uniform(30s, 60s)"
attr unit s
scalar scenario.node[9].veinsmobility startTime 1
scalar scenario.node[9].veinsmobility totalTime 4
scalar scenario.node[9].veinsmobility stopTime 5.236551630583
scalar scenario.node[9].veinsmobility minSpeed 2.5007992214756
scalar scenario.node[9].veinsmobility maxSpeed 8.5767000937369
scalar scenario.node[9].veinsmobility totalDistance 22.274080342561
scalar scenario.node[9].veinsmobility totalCO2Emission 14.005398819159
par scenario.node[9] typename "\"org.car2x.veins.nodes.Car\""
par scenario.node[9] applType "\"test.myveins.TraCI\""
par scenario.node[9] nicType "\"Nic80211p\""
par scenario.node[9] veinsmobilityType "\"org.car2x.veins.modules.mobility.traci.TraCIMobility\""
par scenario.node[10].appl typename "\"test.myveins.TraCI\""
par scenario.node[10].appl headerLength 4096bit
attr unit bit
par scenario.node[10].appl sendBeacons true
par scenario.node[10].appl beaconLengthBits 256bit
attr unit bit
par scenario.node[10].appl beaconUserPriority 7
par scenario.node[10].appl beaconInterval 10s
attr unit s
par scenario.node[10].appl dataLengthBits 1024bit
attr unit bit
par scenario.node[10].appl dataOnSch false
par scenario.node[10].appl dataUserPriority 7
par scenario.node[10].appl avoidBeaconSynchronization true
par scenario.node[10].appl sendWSA false
par scenario.node[10].appl wsaLengthBits 250bit
attr unit bit
par scenario.node[10].appl wsaInterval 1s
attr unit s
par scenario.node[10].appl appName "\"My first Veins App!\""
scalar scenario.node[10].appl generatedWSMs 0
scalar scenario.node[10].appl receivedWSMs 0
scalar scenario.node[10].appl generatedBSMs 0
scalar scenario.node[10].appl receivedBSMs 0
scalar scenario.node[10].appl generatedWSAs 0
scalar scenario.node[10].appl receivedWSAs 0
par scenario.node[10].nic.phy80211p typename "\"org.car2x.veins.modules.phy.PhyLayer80211p\""
par scenario.node[10].nic.phy80211p recordStats false
par scenario.node[10].nic.phy80211p usePropagationDelay true
par scenario.node[10].nic.phy80211p noiseFloor -98dBm
attr unit dBm
par scenario.node[10].nic.phy80211p useNoiseFloor true
par scenario.node[10].nic.phy80211p antenna "<root>...</root> at content:1"
par scenario.node[10].nic.phy80211p antennaOffsetX 0m
attr unit m
par scenario.node[10].nic.phy80211p antennaOffsetY 0m
attr unit m
par scenario.node[10].nic.phy80211p antennaOffsetZ 1.895m
attr unit m
par scenario.node[10].nic.phy80211p antennaOffsetYaw 0rad
attr unit rad
[...]
attr unit s
par scenario.node[12].nic.phy80211p timeTXToRX 0s
attr unit s
par scenario.node[12].nic.phy80211p timeTXToSleep 0s
attr unit s
par scenario.node[12].nic.phy80211p timeSleepToRX 0s
attr unit s
par scenario.node[12].nic.phy80211p timeSleepToTX 0s
attr unit s
par scenario.node[12].nic.phy80211p initialRadioState 0
par scenario.node[12].nic.phy80211p radioMinAtt 1
par scenario.node[12].nic.phy80211p radioMaxAtt 0
par scenario.node[12].nic.phy80211p nbRadioChannels 1
par scenario.node[12].nic.phy80211p initialRadioChannel 0
par scenario.node[12].nic.phy80211p ccaThreshold -65dBm
attr unit dBm
par scenario.node[12].nic.phy80211p collectCollisionStatistics false
par scenario.node[12].nic.phy80211p allowTxDuringRx false
scalar scenario.node[12].nic.phy80211p busyTime 0.00046581043349401
par scenario.node[12].nic.mac1609_4 typename "\"org.car2x.veins.modules.mac.ieee80211p.Mac1609_4\""
par scenario.node[12].nic.mac1609_4 notAffectedByHostState false
par scenario.node[12].nic.mac1609_4 headerLength 0bit
attr unit bit
par scenario.node[12].nic.mac1609_4 address "\"auto\""
par scenario.node[12].nic.mac1609_4 useServiceChannel false
par scenario.node[12].nic.mac1609_4 serviceChannel 1
par scenario.node[12].nic.mac1609_4 bitrate 18000000bps
attr unit bps
par scenario.node[12].nic.mac1609_4 syncOffset 0.0003s
attr unit s
par scenario.node[12].nic.mac1609_4 txPower 20mW
attr unit mW
par scenario.node[12].nic.mac1609_4 queueSize 0
par scenario.node[12].nic.mac1609_4 dot11RTSThreshold 12000bit
attr unit bit
par scenario.node[12].nic.mac1609_4 dot11ShortRetryLimit 7
par scenario.node[12].nic.mac1609_4 dot11LongRetryLimit 4
par scenario.node[12].nic.mac1609_4 ackLength 112bit
attr unit bit
par scenario.node[12].nic.mac1609_4 useAcks false
par scenario.node[12].nic.mac1609_4 frameErrorRate 0
par scenario.node[12].nic.mac1609_4 ackErrorRate 0
scalar scenario.node[12].nic.mac1609_4 ReceivedUnicastPackets 0
scalar scenario.node[12].nic.mac1609_4 ReceivedBroadcasts 0
scalar scenario.node[12].nic.mac1609_4 SentPackets 0
scalar scenario.node[12].nic.mac1609_4 SentAcknowledgements 0
scalar scenario.node[12].nic.mac1609_4 RetriesExceeded 0
scalar scenario.node[12].nic.mac1609_4 SNIRLostPackets 2
scalar scenario.node[12].nic.mac1609_4 RXTXLostPackets 0
scalar scenario.node[12].nic.mac1609_4 TotalLostPackets 2
scalar scenario.node[12].nic.mac1609_4 DroppedPacketsInMac 0
scalar scenario.node[12].nic.mac1609_4 TooLittleTime 0
scalar scenario.node[12].nic.mac1609_4 TimesIntoBackoff 0
scalar scenario.node[12].nic.mac1609_4 SlotsBackoff 0
scalar scenario.node[12].nic.mac1609_4 NumInternalContention 0
scalar scenario.node[12].nic.mac1609_4 totalBusyTime 0.000576
scalar scenario.node[12].nic.mac1609_4 retriesExceeded:count 0
attr recordingmode count
attr source org_car2x_veins_modules_mac_sigRetriesExceeded
scalar scenario.node[12].nic.mac1609_4 sentAcks:count 0
attr recordingmode count
attr source org_car2x_veins_modules_mac_sigSentAck
scalar scenario.node[12].nic.mac1609_4 sentPackets:count 0
attr recordingmode count
attr source org_car2x_veins_modules_mac_sigSentPacket
scalar scenario.node[12].nic.mac1609_4 collisions:count 0
attr recordingmode count
attr source org_car2x_veins_modules_mac_sigCollision
scalar scenario.node[12].nic.mac1609_4 channelBusy:timeavg 0.00046581043349401
attr recordingmode timeavg
attr source org_car2x_veins_modules_mac_sigChannelBusy
par scenario.node[12].nic typename "\"org.car2x.veins.modules.nic.Nic80211p\""
par scenario.node[12].nic connectionManagerName "\"connectionManager\""
par scenario.node[12].veinsmobility typename "\"org.car2x.veins.modules.mobility.traci.TraCIMobility\""
par scenario.node[12].veinsmobility notAffectedByHostState true
par scenario.node[12].veinsmobility x 0
par scenario.node[12].veinsmobility y 0
par scenario.node[12].veinsmobility z 0
par scenario.node[12].veinsmobility xOrientation 1
par scenario.node[12].veinsmobility yOrientation 0
par scenario.node[12].veinsmobility zOrientation 0
par scenario.node[12].veinsmobility hostPositionOffset 0m
attr unit m
par scenario.node[12].veinsmobility setHostSpeed true
par scenario.node[12].veinsmobility accidentCount 0
par scenario.node[12].veinsmobility accidentStart 47.1059s
attr unit s
par scenario.node[12].veinsmobility accidentDuration "uniform(30s, 60s)"
attr unit s
par scenario.node[12].veinsmobility accidentInterval "uniform(30s, 60s)"
attr unit s
scalar scenario.node[12].veinsmobility startTime 4
scalar scenario.node[12].veinsmobility totalTime 1
scalar scenario.node[12].veinsmobility stopTime 5.23655452644
scalar scenario.node[12].veinsmobility minSpeed 1.6484078801703
scalar scenario.node[12].veinsmobility maxSpeed 1.6484078801703
scalar scenario.node[12].veinsmobility totalDistance 1.6483369722722
scalar scenario.node[12].veinsmobility totalCO2Emission 0
par scenario.node[12] typename "\"org.car2x.veins.nodes.Car\""
par scenario.node[12] applType "\"test.myveins.TraCI\""
par scenario.node[12] nicType "\"Nic80211p\""
par scenario.node[12] veinsmobilityType "\"org.car2x.veins.modules.mobility.traci.TraCIMobility\""
par scenario.node[13].appl typename "\"test.myveins.TraCI\""
par scenario.node[13].appl headerLength 4096bit
attr unit bit
par scenario.node[13].appl sendBeacons true
par scenario.node[13].appl beaconLengthBits 256bit
attr unit bit
par scenario.node[13].appl beaconUserPriority 7
par scenario.node[13].appl beaconInterval 10s
attr unit s
par scenario.node[13].appl dataLengthBits 1024bit
attr unit bit
par scenario.node[13].appl dataOnSch false
par scenario.node[13].appl dataUserPriority 7
par scenario.node[13].appl avoidBeaconSynchronization true
par scenario.node[13].appl sendWSA false
par scenario.node[13].appl wsaLengthBits 250bit
attr unit bit
par scenario.node[13].appl wsaInterval 1s
attr unit s
par scenario.node[13].appl appName "\"My first Veins App!\""
scalar scenario.node[13].appl generatedWSMs 0
scalar scenario.node[13].appl receivedWSMs 0
scalar scenario.node[13].appl generatedBSMs 0
scalar scenario.node[13].appl receivedBSMs 0
scalar scenario.node[13].appl generatedWSAs 0
scalar scenario.node[13].appl receivedWSAs 0
par scenario.node[13].nic.phy80211p typename "\"org.car2x.veins.modules.phy.PhyLayer80211p\""
par scenario.node[13].nic.phy80211p recordStats false
par scenario.node[13].nic.phy80211p usePropagationDelay true
par scenario.node[13].nic.phy80211p noiseFloor -98dBm
attr unit dBm
par scenario.node[13].nic.phy80211p useNoiseFloor true
par scenario.node[13].nic.phy80211p antenna "<root>...</root> at content:1"
par scenario.node[13].nic.phy80211p antennaOffsetX 0m
attr unit m
par scenario.node[13].nic.phy80211p antennaOffsetY 0m
attr unit m
par scenario.node[13].nic.phy80211p antennaOffsetZ 1.895m
attr unit m
par scenario.node[13].nic.phy80211p antennaOffsetYaw 0rad
attr unit rad
par scenario.node[13].nic.phy80211p analogueModels "<root>...</root> at /home/mike/Documents/dsrc_cv2x/omnetpp-6.0/samples/test/simulations/traci//config.xml:34"
par scenario.node[13].nic.phy80211p decider "<root>...</root> at /home/mike/Documents/dsrc_cv2x/omnetpp-6.0/samples/test/simulations/traci//config.xml:34"
par scenario.node[13].nic.phy80211p minPowerLevel -110dBm
attr unit dBm
par scenario.node[13].nic.phy80211p timeRXToTX 0s
attr unit s
par scenario.node[13].nic.phy80211p timeRXToSleep 0s
attr unit s
par scenario.node[13].nic.phy80211p timeTXToRX 0s
attr unit s
par scenario.node[13].nic.phy80211p timeTXToSleep 0s
attr unit s
par scenario.node[13].nic.phy80211p timeSleepToRX 0s
attr unit s
par scenario.node[13].nic.phy80211p timeSleepToTX 0s
attr unit s
par scenario.node[13].nic.phy80211p initialRadioState 0
par scenario.node[13].nic.phy80211p radioMinAtt 1
par scenario.node[13].nic.phy80211p radioMaxAtt 0
par scenario.node[13].nic.phy80211p nbRadioChannels 1
par scenario.node[13].nic.phy80211p initialRadioChannel 0
par scenario.node[13].nic.phy80211p ccaThreshold -65dBm
attr unit dBm
par scenario.node[13].nic.phy80211p collectCollisionStatistics false
par scenario.node[13].nic.phy80211p allowTxDuringRx false
scalar scenario.node[13].nic.phy80211p busyTime 0.00046581043349401
par scenario.node[13].nic.mac1609_4 typename "\"org.car2x.veins.modules.mac.ieee80211p.Mac1609_4\""
par scenario.node[13].nic.mac1609_4 notAffectedByHostState false
par scenario.node[13].nic.mac1609_4 headerLength 0bit
attr unit bit
par scenario.node[13].nic.mac1609_4 address "\"auto\""
par scenario.node[13].nic.mac1609_4 useServiceChannel false
par scenario.node[13].nic.mac1609_4 serviceChannel 1
par scenario.node[13].nic.mac1609_4 bitrate 18000000bps
attr unit bps
par scenario.node[13].nic.mac1609_4 syncOffset 0.0003s
attr unit s
par scenario.node[13].nic.mac1609_4 txPower 20mW
attr unit mW
par scenario.node[13].nic.mac1609_4 queueSize 0
par scenario.node[13].nic.mac1609_4 dot11RTSThreshold 12000bit
attr unit bit
par scenario.node[13].nic.mac1609_4 dot11ShortRetryLimit 7
par scenario.node[13].nic.mac1609_4 dot11LongRetryLimit 4
par scenario.node[13].nic.mac1609_4 ackLength 112bit
attr unit bit
par scenario.node[13].nic.mac1609_4 useAcks false
par scenario.node[13].nic.mac1609_4 frameErrorRate 0
par scenario.node[13].nic.mac1609_4 ackErrorRate 0
scalar scenario.node[13].nic.mac1609_4 ReceivedUnicastPackets 0
scalar scenario.node[13].nic.mac1609_4 ReceivedBroadcasts 0
scalar scenario.node[13].nic.mac1609_4 SentPackets 0
scalar scenario.node[13].nic.mac1609_4 SentAcknowledgements 0
scalar scenario.node[13].nic.mac1609_4 RetriesExceeded 0
scalar scenario.node[13].nic.mac1609_4 SNIRLostPackets 2
scalar scenario.node[13].nic.mac1609_4 RXTXLostPackets 0
scalar scenario.node[13].nic.mac1609_4 TotalLostPackets 2
scalar scenario.node[13].nic.mac1609_4 DroppedPacketsInMac 0
scalar scenario.node[13].nic.mac1609_4 TooLittleTime 0
scalar scenario.node[13].nic.mac1609_4 TimesIntoBackoff 0
scalar scenario.node[13].nic.mac1609_4 SlotsBackoff 0
scalar scenario.node[13].nic.mac1609_4 NumInternalContention 0
scalar scenario.node[13].nic.mac1609_4 totalBusyTime 0.000576
scalar scenario.node[13].nic.mac1609_4 retriesExceeded:count 0
attr recordingmode count
attr source org_car2x_veins_modules_mac_sigRetriesExceeded
scalar scenario.node[13].nic.mac1609_4 sentAcks:count 0
attr recordingmode count
attr source org_car2x_veins_modules_mac_sigSentAck
scalar scenario.node[13].nic.mac1609_4 sentPackets:count 0
attr recordingmode count
attr source org_car2x_veins_modules_mac_sigSentPacket
scalar scenario.node[13].nic.mac1609_4 collisions:count 0
attr recordingmode count
attr source org_car2x_veins_modules_mac_sigCollision
scalar scenario.node[13].nic.mac1609_4 channelBusy:timeavg 0.00046581043349401
attr recordingmode timeavg
attr source org_car2x_veins_modules_mac_sigChannelBusy
par scenario.node[13].nic typename "\"org.car2x.veins.modules.nic.Nic80211p\""
par scenario.node[13].nic connectionManagerName "\"connectionManager\""
par scenario.node[13].veinsmobility typename "\"org.car2x.veins.modules.mobility.traci.TraCIMobility\""
par scenario.node[13].veinsmobility notAffectedByHostState true
par scenario.node[13].veinsmobility x 0
par scenario.node[13].veinsmobility y 0
par scenario.node[13].veinsmobility z 0
par scenario.node[13].veinsmobility xOrientation 1
par scenario.node[13].veinsmobility yOrientation 0
par scenario.node[13].veinsmobility zOrientation 0
par scenario.node[13].veinsmobility hostPositionOffset 0m
attr unit m
par scenario.node[13].veinsmobility setHostSpeed true
par scenario.node[13].veinsmobility accidentCount 0
par scenario.node[13].veinsmobility accidentStart 58.7685s
attr unit s
par scenario.node[13].veinsmobility accidentDuration "uniform(30s, 60s)"
attr unit s
par scenario.node[13].veinsmobility accidentInterval "uniform(30s, 60s)"
attr unit s
scalar scenario.node[13].veinsmobility startTime 4
scalar scenario.node[13].veinsmobility totalTime 1
scalar scenario.node[13].veinsmobility stopTime 5.23655452644
scalar scenario.node[13].veinsmobility minSpeed 2.5374351908918
scalar scenario.node[13].veinsmobility maxSpeed 2.5374351908918
scalar scenario.node[13].veinsmobility totalDistance 2.5358855553867
scalar scenario.node[13].veinsmobility totalCO2Emission 0
par scenario.node[13] typename "\"org.car2x.veins.nodes.Car\""
par scenario.node[13] applType "\"test.myveins.TraCI\""
par scenario.node[13] nicType "\"Nic80211p\""
par scenario.node[13] veinsmobilityType "\"org.car2x.veins.modules.mobility.traci.TraCIMobility\""
par scenario.trafficLight[0].appl typename "\"test.myveins.TrafficLightApp\""
par scenario.trafficLight[0].appl headerLength 4096bit
attr unit bit
par scenario.trafficLight[0].appl sendBeacons false
par scenario.trafficLight[0].appl beaconLengthBits 256bit
attr unit bit
par scenario.trafficLight[0].appl beaconUserPriority 7
par scenario.trafficLight[0].appl beaconInterval 1s
attr unit s
par scenario.trafficLight[0].appl dataLengthBits 1024bit
attr unit bit
par scenario.trafficLight[0].appl dataOnSch false
par scenario.trafficLight[0].appl dataUserPriority 7
par scenario.trafficLight[0].appl avoidBeaconSynchronization true
par scenario.trafficLight[0].appl sendWSA false
par scenario.trafficLight[0].appl wsaLengthBits 250bit
attr unit bit
par scenario.trafficLight[0].appl wsaInterval 1s
attr unit s
par scenario.trafficLight[0].appl aggregationInterval 1s
attr unit s
scalar scenario.trafficLight[0].appl generatedWSMs 0
scalar scenario.trafficLight[0].appl receivedWSMs 0
scalar scenario.trafficLight[0].appl generatedBSMs 0
scalar scenario.trafficLight[0].appl receivedBSMs 1
scalar scenario.trafficLight[0].appl generatedWSAs 0
scalar scenario.trafficLight[0].appl receivedWSAs 0
par scenario.trafficLight[0].nic.phy80211p typename "\"org.car2x.veins.modules.phy.PhyLayer80211p\""
par scenario.trafficLight[0].nic.phy80211p recordStats false
par scenario.trafficLight[0].nic.phy80211p usePropagationDelay true
par scenario.trafficLight[0].nic.phy80211p noiseFloor -98dBm
attr unit dBm
par scenario.trafficLight[0].nic.phy80211p useNoiseFloor true
par scenario.trafficLight[0].nic.phy80211p antenna "<root>...</root> at content:1"
par scenario.trafficLight[0].nic.phy80211p antennaOffsetX 0m
attr unit m
par scenario.trafficLight[0].nic.phy80211p antennaOffsetY 0m
attr unit m
par scenario.trafficLight[0].nic.phy80211p antennaOffsetZ 1.895m
attr unit m
par scenario.trafficLight[0].nic.phy80211p antennaOffsetYaw 0rad
attr unit rad
par scenario.trafficLight[0].nic.phy80211p analogueModels "<root>...</root> at /home/mike/Documents/dsrc_cv2x/omnetpp-6.0/samples/test/simulations/traci//config.xml:34"
par scenario.trafficLight[0].nic.phy80211p decider "<root>...</root> at /home/mike/Documents/dsrc_cv2x/omnetpp-6.0/samples/test/simulations/traci//config.xml:34"
par scenario.trafficLight[0].nic.phy80211p minPowerLevel -110dBm
attr unit dBm
par scenario.trafficLight[0].nic.phy80211p timeRXToTX 0s
attr unit s
par scenario.trafficLight[0].nic.phy80211p timeRXToSleep 0s
attr unit s
par scenario.trafficLight[0].nic.phy80211p timeTXToRX 0s
attr unit s
par scenario.trafficLight[0].nic.phy80211p timeTXToSleep 0s
attr unit s
par scenario.trafficLight[0].nic.phy80211p timeSleepToRX 0s
attr unit s
par scenario.trafficLight[0].nic.phy80211p timeSleepToTX 0s
attr unit s
par scenario.trafficLight[0].nic.phy80211p initialRadioState 0
par scenario.trafficLight[0].nic.phy80211p radioMinAtt 1
par scenario.trafficLight[0].nic.phy80211p radioMaxAtt 0
par scenario.trafficLight[0].nic.phy80211p nbRadioChannels 1
par scenario.trafficLight[0].nic.phy80211p initialRadioChannel 0
par scenario.trafficLight[0].nic.phy80211p ccaThreshold -65dBm
attr unit dBm
par scenario.trafficLight[0].nic.phy80211p collectCollisionStatistics false
par scenario.trafficLight[0].nic.phy80211p allowTxDuringRx false
scalar scenario.trafficLight[0].nic.phy80211p busyTime 0.00027498997532237
par scenario.trafficLight[0].nic.mac1609_4 typename "\"org.car2x.veins.modules.mac.ieee80211p.Mac1609_4\""
par scenario.trafficLight[0].nic.mac1609_4 notAffectedByHostState false
par scenario.trafficLight[0].nic.mac1609_4 headerLength 0bit
attr unit bit
par scenario.trafficLight[0].nic.mac1609_4 address "\"auto\""
par scenario.trafficLight[0].nic.mac1609_4 useServiceChannel false
par scenario.trafficLight[0].nic.mac1609_4 serviceChannel 1
par scenario.trafficLight[0].nic.mac1609_4 bitrate 18000000bps
attr unit bps
par scenario.trafficLight[0].nic.mac1609_4 syncOffset 0.0003s
attr unit s
par scenario.trafficLight[0].nic.mac1609_4 txPower 20mW
attr unit mW
par scenario.trafficLight[0].nic.mac1609_4 queueSize 0
par scenario.trafficLight[0].nic.mac1609_4 dot11RTSThreshold 12000bit
attr unit bit
par scenario.trafficLight[0].nic.mac1609_4 dot11ShortRetryLimit 7
par scenario.trafficLight[0].nic.mac1609_4 dot11LongRetryLimit 4
par scenario.trafficLight[0].nic.mac1609_4 ackLength 112bit
attr unit bit
par scenario.trafficLight[0].nic.mac1609_4 useAcks false
par scenario.trafficLight[0].nic.mac1609_4 frameErrorRate 0
par scenario.trafficLight[0].nic.mac1609_4 ackErrorRate 0
scalar scenario.trafficLight[0].nic.mac1609_4 ReceivedUnicastPackets 0
scalar scenario.trafficLight[0].nic.mac1609_4 ReceivedBroadcasts 1
scalar scenario.trafficLight[0].nic.mac1609_4 SentPackets 0
scalar scenario.trafficLight[0].nic.mac1609_4 SentAcknowledgements 0
scalar scenario.trafficLight[0].nic.mac1609_4 RetriesExceeded 0
scalar scenario.trafficLight[0].nic.mac1609_4 SNIRLostPackets 4
scalar scenario.trafficLight[0].nic.mac1609_4 RXTXLostPackets 0
scalar scenario.trafficLight[0].nic.mac1609_4 TotalLostPackets 4
scalar scenario.trafficLight[0].nic.mac1609_4 DroppedPacketsInMac 0
scalar scenario.trafficLight[0].nic.mac1609_4 TooLittleTime 0
scalar scenario.trafficLight[0].nic.mac1609_4 TimesIntoBackoff 0
scalar scenario.trafficLight[0].nic.mac1609_4 SlotsBackoff 0
scalar scenario.trafficLight[0].nic.mac1609_4 NumInternalContention 0
scalar scenario.trafficLight[0].nic.mac1609_4 totalBusyTime 0.00144
scalar scenario.trafficLight[0].nic.mac1609_4 retriesExceeded:count 0
attr recordingmode count
attr source org_car2x_veins_modules_mac_sigRetriesExceeded
scalar scenario.trafficLight[0].nic.mac1609_4 sentAcks:count 0
attr recordingmode count
attr source org_car2x_veins_modules_mac_sigSentAck
scalar scenario.trafficLight[0].nic.mac1609_4 sentPackets:count 0
attr recordingmode count
attr source org_car2x_veins_modules_mac_sigSentPacket
scalar scenario.trafficLight[0].nic.mac1609_4 collisions:count 0
attr recordingmode count
attr source org_car2x_veins_modules_mac_sigCollision
scalar scenario.trafficLight[0].nic.mac1609_4 channelBusy:timeavg 0.00027498997532237
attr recordingmode timeavg
attr source org_car2x_veins_modules_mac_sigChannelBusy
par scenario.trafficLight[0].nic typename "\"org.car2x.veins.modules.nic.Nic80211p\""
par scenario.trafficLight[0].nic connectionManagerName "\"connectionManager\""
par scenario.trafficLight[0].mobility typename "\"org.car2x.veins.base.modules.BaseMobility\""
par scenario.trafficLight[0].mobility notAffectedByHostState true
par scenario.trafficLight[0].mobility x 0
par scenario.trafficLight[0].mobility y 0
par scenario.trafficLight[0].mobility z 3
par scenario.trafficLight[0].mobility xOrientation 1
par scenario.trafficLight[0].mobility yOrientation 0
par scenario.trafficLight[0].mobility zOrientation 0
par scenario.trafficLight[0].tlInterface typename "\"org.car2x.veins.modules.world.traci.trafficLight.TraCITrafficLightInterface\""
par scenario.trafficLight[0].logic typename "\"test.myveins.TrafficLightTestLogic\""
par scenario.trafficLight[0] typename "\"org.car2x.veins.nodes.TrafficLight\""
par scenario.trafficLight[0] logicType "\"test.myveins.TrafficLightTestLogic\""
par scenario.trafficLight[0] applType "\"test.myveins.TrafficLightApp\""
par scenario.trafficLight[0] nicType "\"Nic80211p\""
par scenario.trafficLight[0] externalId "\"10\""
par scenario typename "\"test.simulations.traci.scenario\""
par scenario playgroundSizeX 14935m
attr unit m
par scenario playgroundSizeY 8039m
attr unit m
par scenario playgroundSizeZ 50m
attr unit m

