version 3
run withgui-0-20230930-12:19:36-29107
attr configname withgui
attr datetime 20230930-12:19:36
attr datetimef 20230930-121936
attr experiment withgui
attr inifile omnetpp.ini
attr iterationvars ""
attr iterationvarsd ""
attr iterationvarsf ""
attr measurement ""
attr network scenario
attr processid 29107
attr repetition 0
attr replication #0
attr resultdir veins-runall-output
attr runnumber 0
attr seedset 0
config image-path ../../../../../inet4.4/images:../../../../../veins-veins-5.2/images
config *.manager.ignoreGuiCommands false
config cmdenv-event-banner-details true
config cmdenv-event-banners true
config cmdenv-express-mode false
config cmdenv-autoflush true
config cmdenv-log-prefix "[%c%?-%l] %G:%R "
config cmdenv-performance-display false
config result-dir veins-runall-output
config network scenario
config debug-on-errors true
config print-undisposed false
config sim-time-limit 200s
config **.scalar-recording true
config **.vector-recording true
config *.playgroundSizeX 14935m
config *.playgroundSizeY 8039m
config *.playgroundSizeZ 50m
config *.annotations.draw false
config *.world.useTorus false
config *.world.use2D false
config *.manager.updateInterval 1s
config *.manager.host "\"localhost\""
config *.manager.port 9999
config *.manager.moduleType "\"org.car2x.veins.nodes.Car\""
config *.manager.moduleName "\"node\""
config *.manager.moduleDisplayString "\"\""
config *.manager.autoShutdown true
config *.manager.margin 25
config *.manager.launchConfig "xmldoc(\"map_nttd.launchd.xml\")"
config *.manager.trafficLightModuleType "\"org.car2x.veins.nodes.TrafficLight\""
config *.manager.trafficLightModuleName "\"trafficLight\""
config *.manager.trafficLightModuleDisplayString default
config *.manager.trafficLightFilter "\"10\""
config *.manager.ignoreGuiCommands true
config *.trafficLight[0].mobility.x 0
config *.trafficLight[0].mobility.y 0
config *.trafficLight[0].mobility.z 3
config *.trafficLight[*].applType "\"test.myveins.TrafficLightApp\""
config *.trafficLight[*].logicType "\"test.myveins.TrafficLightTestLogic\""
config *.trafficLight[*].appl.headerLength 4096bit
config *.trafficLight[*].appl.sendBeacons true
config *.trafficLight[*].appl.dataOnSch false
config *.trafficLight[*].appl.beaconInterval 10s
config *.trafficLight[*].appl.isVehicle false
config *.trafficLight[0].appl.trafficLightID "\"10\""
config *.connectionManager.sendDirect true
config *.connectionManager.maxInterfDist 2600m
config *.connectionManager.drawMaxIntfDist false
config *.**.nic.mac1609_4.useServiceChannel false
config *.**.nic.mac1609_4.txPower 20mW
config *.**.nic.mac1609_4.bitrate 18Mbps
config *.**.nic.phy80211p.minPowerLevel -110dBm
config *.**.nic.phy80211p.useNoiseFloor true
config *.**.nic.phy80211p.noiseFloor -98dBm
config *.**.nic.phy80211p.decider "xmldoc(\"config.xml\")"
config *.**.nic.phy80211p.analogueModels "xmldoc(\"config.xml\")"
config *.**.nic.phy80211p.usePropagationDelay true
config *.node[*].applType "\"test.myveins.TraCI\""
config *.node[*].appl.headerLength 4096bit
config *.node[*].appl.sendBeacons false
config *.node[*].appl.dataOnSch false
config *.node[*].appl.beaconInterval 10s
config *.node[*].veinsmobility.x 0
config *.node[*].veinsmobility.y 0
config *.node[*].veinsmobility.z 0
config *.node[*].veinsmobility.setHostSpeed true

vector 0 scenario.node[0].veinsmobility posx ETV
vector 1 scenario.node[0].veinsmobility posy ETV
vector 2 scenario.node[1].veinsmobility posx ETV
vector 3 scenario.node[1].veinsmobility posy ETV
vector 4 scenario.node[2].veinsmobility posx ETV
vector 5 scenario.node[2].veinsmobility posy ETV
vector 6 scenario.node[3].veinsmobility posx ETV
vector 7 scenario.node[3].veinsmobility posy ETV
vector 8 scenario.node[4].veinsmobility posx ETV
vector 9 scenario.node[4].veinsmobility posy ETV
vector 10 scenario.node[5].veinsmobility posx ETV
vector 11 scenario.node[5].veinsmobility posy ETV
vector 12 scenario.node[6].veinsmobility posx ETV
vector 13 scenario.node[6].veinsmobility posy ETV
vector 14 scenario.node[7].veinsmobility posx ETV
vector 15 scenario.node[7].veinsmobility posy ETV
vector 16 scenario.node[8].veinsmobility posx ETV
vector 17 scenario.node[8].veinsmobility posy ETV
vector 18 scenario.node[9].veinsmobility posx ETV
vector 19 scenario.node[9].veinsmobility posy ETV
vector 20 scenario.node[0].veinsmobility speed ETV
vector 21 scenario.node[1].veinsmobility speed ETV
vector 22 scenario.node[2].veinsmobility speed ETV
vector 23 scenario.node[3].veinsmobility speed ETV
vector 24 scenario.node[4].veinsmobility speed ETV
vector 25 scenario.node[5].veinsmobility speed ETV
vector 26 scenario.node[6].veinsmobility speed ETV
vector 27 scenario.node[7].veinsmobility speed ETV
vector 28 scenario.node[8].veinsmobility speed ETV
vector 29 scenario.node[9].veinsmobility speed ETV
vector 30 scenario.node[0].veinsmobility acceleration ETV
vector 31 scenario.node[0].veinsmobility co2emission ETV
vector 32 scenario.node[1].veinsmobility acceleration ETV
vector 33 scenario.node[1].veinsmobility co2emission ETV
vector 34 scenario.node[2].veinsmobility acceleration ETV
vector 35 scenario.node[2].veinsmobility co2emission ETV
vector 36 scenario.node[3].veinsmobility acceleration ETV
vector 37 scenario.node[3].veinsmobility co2emission ETV
vector 38 scenario.node[4].veinsmobility acceleration ETV
vector 39 scenario.node[4].veinsmobility co2emission ETV
vector 40 scenario.node[5].veinsmobility acceleration ETV
vector 41 scenario.node[5].veinsmobility co2emission ETV
vector 42 scenario.node[6].veinsmobility acceleration ETV
vector 43 scenario.node[6].veinsmobility co2emission ETV
vector 44 scenario.node[7].veinsmobility acceleration ETV
vector 45 scenario.node[7].veinsmobility co2emission ETV
vector 46 scenario.node[8].veinsmobility acceleration ETV
vector 47 scenario.node[8].veinsmobility co2emission ETV
vector 48 scenario.node[9].veinsmobility acceleration ETV
vector 49 scenario.node[9].veinsmobility co2emission ETV
vector 50 scenario.node[10].veinsmobility posx ETV
vector 51 scenario.node[10].veinsmobility posy ETV
vector 52 scenario.node[11].veinsmobility posx ETV
vector 53 scenario.node[11].veinsmobility posy ETV
vector 54 scenario.node[12].veinsmobility posx ETV
vector 55 scenario.node[12].veinsmobility posy ETV
vector 56 scenario.node[13].veinsmobility posx ETV
vector 57 scenario.node[13].veinsmobility posy ETV
vector 58 scenario.node[10].veinsmobility speed ETV
vector 59 scenario.node[11].veinsmobility speed ETV
vector 60 scenario.node[12].veinsmobility speed ETV
vector 61 scenario.node[13].veinsmobility speed ETV
vector 62 scenario.node[10].veinsmobility acceleration ETV
vector 63 scenario.node[10].veinsmobility co2emission ETV
vector 64 scenario.node[11].veinsmobility acceleration ETV
vector 65 scenario.node[11].veinsmobility co2emission ETV
vector 66 scenario.node[12].veinsmobility acceleration ETV
vector 67 scenario.node[12].veinsmobility co2emission ETV
vector 68 scenario.node[13].veinsmobility acceleration ETV
vector 69 scenario.node[13].veinsmobility co2emission ETV
vector 70 scenario.node[14].veinsmobility posx ETV
vector 71 scenario.node[14].veinsmobility posy ETV
vector 72 scenario.node[15].veinsmobility posx ETV
vector 73 scenario.node[15].veinsmobility posy ETV
vector 74 scenario.node[16].veinsmobility posx ETV
vector 75 scenario.node[16].veinsmobility posy ETV
vector 76 scenario.node[17].veinsmobility posx ETV
vector 77 scenario.node[17].veinsmobility posy ETV
vector 78 scenario.node[14].veinsmobility speed ETV
vector 79 scenario.node[15].veinsmobility speed ETV
vector 80 scenario.node[16].veinsmobility speed ETV
vector 81 scenario.node[17].veinsmobility speed ETV
vector 82 scenario.node[14].veinsmobility acceleration ETV
vector 83 scenario.node[14].veinsmobility co2emission ETV
vector 84 scenario.node[15].veinsmobility acceleration ETV
vector 85 scenario.node[15].veinsmobility co2emission ETV
vector 86 scenario.node[16].veinsmobility acceleration ETV
vector 87 scenario.node[16].veinsmobility co2emission ETV
vector 88 scenario.node[17].veinsmobility acceleration ETV
vector 89 scenario.node[17].veinsmobility co2emission ETV
0	2	1	1398.7197434881
0	4	2	1397.3487054635
0	6	3	1394.6069367898
0	8	4	1389.5656600212
0	10	5	1382.3648290766
0	12	6	1373.4803669849
0	14	7	1363.0743604924
0	16	8	1351.1628901042
0	120	9	1336.9739573684
0	122	10	1319.9056057579
0	124	11	1300.8678409714
0	126	12	1280.2495666581
0	128	13	1257.5962606808
0	130	14	1231.4830667396
0	132	15	1203.9473069409
0	134	16	1175.0995584869
0	136	17	1144.5459633136
0	138	18	1115.0575582883
1	2	1	1794.446761769
1	4	2	1793.7678095777
1	6	3	1792.4100574107
1	8	4	1789.9135650834
1	10	5	1786.347639222
1	12	6	1781.0467874311
1	14	7	1774.2766910497
1	16	8	1766.5271473
1	120	9	1759.9272574684
1	122	10	1753.5949423804
1	124	11	1747.5292885184
1	126	12	1740.5348053957
1	128	13	1733.5170793003
1	130	14	1732.9784003844
1	132	15	1736.7490598293
1	134	16	1740.9475032751
1	136	17	1745.9942560871
1	138	18	1749.519699284
2	2	1	1001.5435223515
2	4	2	1001.1584818821
2	6	3	1000.4941016892
2	8	4	999.51184592843
2	10	5	998.18215618578
2	12	6	996.52138391752
2	14	7	994.31210392731
2	16	8	991.54542447452
2	120	9	988.26078926151
2	122	10	984.50317488698
2	124	11	980.24223421439
2	126	12	976.34813853173
2	128	13	971.84808949142
2	130	14	966.88926395948
2	132	15	964.93370469566
2	134	16	964.31118234764
2	136	17	969.06463660932
2	138	18	979.70652057368
3	2	1	1730.622318228
3	4	2	1728.7292025868
3	6	3	1725.4626666388
3	8	4	1720.6332424815
3	10	5	1714.0956012468
3	12	6	1706.1271147149
3	14	7	1696.1039346493
3	16	8	1683.5519147777
3	120	9	1668.6500054065
3	122	10	1651.6022587832
3	124	11	1632.2709943896
3	126	12	1611.4868849566
3	128	13	1588.461592917
3	130	14	1563.5556884522
3	132	15	1536.086825276
3	134	16	1507.4393675591
3	136	17	1479.2138392773
3	138	18	1452.9024536911
4	2	1	2873.3100545865
4	4	2	2872.2281642419
4	6	3	2870.2355664257
4	8	4	2867.5044808901
4	10	5	2864.1130599878
4	12	6	2859.6000513703
4	14	7	2854.3389145238
4	16	8	2848.1109526127
4	120	9	2841.2386727686
4	122	10	2833.2425135412
4	124	11	2824.1545270973
4	126	12	2815.2147666498
4	128	13	2806.4322209374
4	130	14	2797.0700174728
4	132	15	2786.8954937075
4	134	16	2776.9759035677
4	136	17	2766.9644327656
4	138	18	2757.2368612667
5	2	1	1925.3552044343
5	4	2	1927.497038883
5	6	3	1931.4418144938
5	8	4	1936.8485852554
5	10	5	1943.5626317894
5	12	6	1952.4971022488
5	14	7	1962.9126533194
5	16	8	1975.2422423879
5	120	9	1988.8473972767
5	122	10	2004.6775129401
5	124	11	2022.6691352257
5	126	12	2040.3673122958
5	128	13	2057.7542490105
5	130	14	2074.8712177463
5	132	15	2092.1235549187
5	134	16	2108.9436162457
5	136	17	2125.9194741681
5	138	18	2143.5208690098
6	2	1	2589.7296111006
6	4	2	2591.8425478182
6	6	3	2595.5198593562
6	8	4	2600.5611382722
6	10	5	2607.9639636918
6	12	6	2616.9531577575
6	14	7	2627.7663642757
6	16	8	2640.5998970097
6	120	9	2655.9573252112
6	122	10	2673.4798158189
6	124	11	2692.6815924612
6	126	12	2714.4097036654
6	128	13	2737.6554409703
6	130	14	2763.4998260353
6	132	15	2791.7072420678
6	134	16	2819.8011811548
6	136	17	2848.1246198759
6	138	18	2875.9653694398
7	2	1	1899.5684190126
7	4	2	1899.551190641
7	6	3	1899.5212067379
7	8	4	1899.4801013769
7	10	5	1899.482701347
7	12	6	1899.5012243102
7	14	7	1899.523505799
7	16	8	1899.5499503338
7	120	9	1899.6445530983
7	122	10	1899.8766981968
7	124	11	1900.1310911613
7	126	12	1900.4189540358
7	128	13	1900.7269230396
7	130	14	1901.0693199882
7	132	15	1901.2505739001
7	134	16	1901.9649633366
7	136	17	1903.27732269
7	138	18	1906.4915494784
8	2	1	1735.5864276406
8	4	2	1734.2312345496
8	6	3	1731.5619669019
8	8	4	1727.6928765585
8	10	5	1722.7445017253
8	12	6	1716.4913149815
8	14	7	1709.1716187243
8	16	8	1700.1050587541
8	120	9	1689.4670974104
8	122	10	1677.0437583232
8	124	11	1662.9544350278
8	126	12	1648.6128110033
8	128	13	1634.8597579849
8	130	14	1620.5608136434
8	132	15	1606.3048107712
8	134	16	1591.7695188092
8	136	17	1576.8692859597
8	138	18	1562.6236647217
9	2	1	26.255163777872
9	4	2	27.570255419638
9	6	3	30.160536905433
9	8	4	33.915137195228
9	10	5	38.717084922767
9	12	6	44.785233938772
9	14	7	51.888333439888
9	16	8	59.868750506444
9	120	9	68.33087271352
9	122	10	77.369155250565
9	124	11	86.309945155985
9	126	12	95.05388404123
9	128	13	103.09823074314
9	130	14	111.46187666243
9	132	15	119.76640668701
9	134	16	127.93997588269
9	136	17	136.3187607427
9	138	18	144.32944062642
10	2	1	2263.289475816
10	4	2	2264.1950341658
10	6	3	2266.3434330946
10	8	4	2269.2409645403
10	10	5	2272.8801029667
10	12	6	2277.2543504396
10	14	7	2282.6463294614
10	16	8	2289.2086207398
10	120	9	2295.452594237
10	122	10	2301.8378129472
10	124	11	2308.2224175864
10	126	12	2314.6553021864
10	128	13	2321.1601358347
10	130	14	2327.6411846815
10	132	15	2334.4336535444
10	134	16	2341.0703736054
10	136	17	2347.5660775983
10	138	18	2354.0996540461
11	2	1	3428.1227453483
11	4	2	3426.4626477471
11	6	3	3422.5241363201
11	8	4	3417.2122919715
11	10	5	3410.5409107468
11	12	6	3402.5219048605
11	14	7	3392.6371619917
11	16	8	3380.6069664632
11	120	9	3369.1603209457
11	122	10	3357.454740331
11	124	11	3345.7502854506
11	126	12	3333.957322251
11	128	13	3322.0324598289
11	130	14	3310.1745373025
11	132	15	3298.1382211459
11	134	16	3286.3778932726
11	136	17	3274.8674471452
11	138	18	3263.2898906858
12	2	1	3605.2975672646
12	4	2	3605.0388525492
12	6	3	3602.6090323118
12	8	4	3596.7924413927
12	10	5	3589.2599369793
12	12	6	3579.8549538465
12	14	7	3570.1595970059
12	16	8	3560.1965449609
12	120	9	3551.7577472676
12	122	10	3541.7485499015
12	124	11	3531.6539481856
12	126	12	3521.7094815806
12	128	13	3511.934280958
12	130	14	3502.468918352
12	132	15	3492.1539052408
12	134	16	3482.4861552036
12	136	17	3472.8364912349
12	138	18	3462.6300936416
13	2	1	1556.7248318386
13	4	2	1560.6390324544
13	6	3	1565.9005807112
13	8	4	1569.4834577597
13	10	5	1574.1232953476
13	12	6	1579.9165338058
13	14	7	1585.8886353313
13	16	8	1592.6011175779
13	120	9	1599.9863545167
13	122	10	1607.0325547552
13	124	11	1613.103202712
13	126	12	1619.0607711722
13	128	13	1624.9169351309
13	130	14	1630.5874801651
13	132	15	1636.76703702
13	134	16	1642.5588290779
13	136	17	1648.3397860657
13	138	18	1654.4542731276
14	2	1	3221.7365715606
14	4	2	3222.9404385831
14	6	3	3225.4151666622
14	8	4	3229.6758819342
14	10	5	3235.6339090362
14	12	6	3243.6043792695
14	14	7	3252.6505736826
14	16	8	3262.9885407926
14	120	9	3275.5027712888
14	122	10	3290.0667102026
14	124	11	3306.5177063599
14	126	12	3324.6083857606
14	128	13	3344.5757035791
14	130	14	3365.9783560088
14	132	15	3388.6676041182
14	134	16	3412.6500699109
14	136	17	3437.9506786341
14	138	18	3464.6169623074
15	2	1	2074.2552261045
15	4	2	2075.1111476734
15	6	3	2076.8706220176
15	8	4	2079.9650263701
15	10	5	2084.3802211512
15	12	6	2090.2867365084
15	14	7	2096.990417052
15	16	8	2104.6513654918
15	120	9	2112.5968688384
15	122	10	2121.0530878908
15	124	11	2130.5751519527
15	126	12	2141.0472578794
15	128	13	2152.60846379
15	130	14	2164.9943814256
15	132	15	2178.129871913
15	134	16	2192.0183085211
15	136	17	2206.6613936394
15	138	18	2222.1415685027
16	2	1	2879.1265144798
16	4	2	2880.0762261396
16	6	3	2882.0202534968
16	8	4	2885.0175588291
16	10	5	2889.3166123455
16	12	6	2894.8460730274
16	14	7	2901.1755726578
16	16	8	2908.3606441803
16	120	9	2913.9869687588
16	122	10	2923.4151087334
16	124	11	2933.8170558547
16	126	12	2945.2621705634
16	128	13	2957.4472091204
16	130	14	2970.7536391607
16	132	15	2983.7135054199
16	134	16	2996.8759059719
16	136	17	3009.2533059941
16	138	18	3022.5081917335
17	2	1	2355.8722944922
17	4	2	2354.2512858659
17	6	3	2350.9331365276
17	8	4	2345.8172071308
17	10	5	2338.4793980572
17	12	6	2328.9589413828
17	14	7	2318.1331269244
17	16	8	2305.9220159574
17	120	9	2290.0570567616
17	122	10	2274.1349166717
17	124	11	2256.742463756
17	126	12	2237.6057947876
17	128	13	2217.2319448817
17	130	14	2194.9830855812
17	132	15	2173.3136941606
17	134	16	2151.2929265674
17	136	17	2129.4865522683
17	138	18	2107.3175175385
18	2	1	3684.8599814642
18	4	2	3682.6779024662
18	6	3	3678.4870236468
18	8	4	3672.9172593828
18	10	5	3665.4430805123
18	12	6	3656.8030809213
18	14	7	3646.4185616024
18	16	8	3634.1096096846
18	120	9	3620.1027962879
18	122	10	3604.352288989
18	124	11	3586.9111323806
18	126	12	3568.191772265
18	128	13	3547.642948407
18	130	14	3525.5961775197
18	132	15	3502.3816204787
18	134	16	3477.378721719
18	136	17	3451.1713806682
18	138	18	3423.5225360983
19	2	1	2343.8985656741
19	4	2	2342.676883905
19	6	3	2340.3259402524
19	8	4	2337.1911167654
19	10	5	2332.9844339762
19	12	6	2328.1409729558
19	14	7	2322.303603802
19	16	8	2315.4009330071
19	120	9	2307.5421769039
19	122	10	2298.592437795
19	124	11	2288.6706021219
19	126	12	2278.0216285966
19	128	13	2266.3319191253
19	130	14	2253.7900652347
19	132	15	2240.4354578259
19	134	16	2225.8776088498
19	136	17	2210.6270392902
19	138	18	2194.624879465
20	4	2	1.529956558696
20	6	3	3.0595701136393
20	8	4	5.6256167356856
20	10	5	8.0354872251628
20	12	6	10.361485390365
20	14	7	12.414595725434
20	16	8	14.210647424823
20	120	9	15.734449266898
20	122	10	18.206679468113
20	124	11	19.980902098352
20	126	12	21.77473139707
20	128	13	23.759394656704
20	130	14	26.28933737115
20	132	15	27.802635902353
20	134	16	29.153785626614
20	136	17	30.968608758515
20	138	18	29.736255813911
21	4	2	1.9318736586953
21	6	3	3.3334121888736
21	8	4	4.9282976239221
21	10	5	6.6714872650569
21	12	6	8.1399312750436
21	14	7	10.263764152653
21	16	8	12.853303119191
21	120	9	15.259596476308
21	122	10	17.456939766626
21	124	11	19.795268289023
21	126	12	21.150383425155
21	128	13	23.461791151576
21	130	14	25.3947394263
21	132	15	27.579486213042
21	134	16	28.710782243323
21	136	17	28.651196293847
21	138	18	28.423592079606
22	4	2	2.3995883058989
22	6	3	4.4195000369567
22	8	4	6.0574354381301
22	10	5	7.522032133746
22	12	6	10.009667575755
22	14	7	11.668985230708
22	16	8	13.813363475958
22	120	9	15.242434162414
22	122	10	17.735152429738
22	124	11	20.156780308927
22	126	12	19.828021142754
22	128	13	19.47932532386
22	130	14	19.520517515001
22	132	15	20.029224165139
22	134	16	19.527370432281
22	136	17	19.708243603544
22	138	18	20.113951802399
23	4	2	2.1130978513975
23	6	3	3.6775919719366
23	8	4	5.0416633669054
23	10	5	7.4031981429318
23	12	6	8.9895998462569
23	14	7	10.813694636384
23	16	8	12.834112051618
23	120	9	15.358603357221
23	122	10	17.524782162509
23	124	11	19.204287810717
23	126	12	21.730952761322
23	128	13	23.248777334043
23	130	14	25.847764939908
23	132	15	28.209339077026
23	134	16	28.123830888881
23	136	17	28.357451472659
23	138	18	28.046456386377
24	4	2	1.8865424470045
24	6	3	3.7158444456989
24	8	4	5.3860982712358
24	10	5	6.8885528039187
24	12	6	8.7049604224274
24	14	7	10.189631116623
24	16	8	12.081282986025
24	120	9	13.579855727591
24	122	10	15.369222922274
24	124	11	16.67040377931
24	126	12	16.783305013168
24	128	13	15.917338406725
24	130	14	16.549135354848
24	132	15	16.482536602009
24	134	16	16.659479768888
24	136	17	17.077753123676
24	138	18	16.327476560476
25	4	2	1.8890440943418
25	6	3	4.4816773099359
25	8	4	6.0444085873896
25	10	5	7.5914411865408
25	12	6	9.1249187401729
25	14	7	11.247962244204
25	16	8	13.689297424443
25	120	9	13.025269176248
25	122	10	13.319914392169
25	124	11	13.318633406303
25	126	12	13.419348037425
25	128	13	13.569437674988
25	130	14	13.499436065272
25	132	15	13.806208797494
25	134	16	13.48963752987
25	136	17	13.203011662463
25	138	18	13.279990303024
26	4	2	2.2769368349575
26	6	3	4.8268066514051
26	8	4	6.8313352203462
26	10	5	8.8466016283026
26	12	6	11.045747142169
26	14	7	11.386778540948
26	16	8	11.965325843535
26	120	9	11.149702946135
26	122	10	12.188705535924
26	124	11	11.781734501097
26	126	12	11.593771751729
26	128	13	11.39643274468
26	130	14	11.035207614411
26	132	15	12.025773968353
26	134	16	11.271161313696
26	136	17	11.250075642873
26	138	18	11.899144399018
27	4	2	1.4771120201563
27	6	3	3.0364238938317
27	8	4	5.2660461387597
27	10	5	7.4155973286135
27	12	6	9.9203640328953
27	14	7	11.259253101074
27	16	8	12.867044740194
27	120	9	14.829677334707
27	122	10	16.841142557911
27	124	11	19.007860190212
27	126	12	20.90287425085
27	128	13	23.072626296035
27	130	14	24.727999786334
27	132	15	26.217007499095
27	134	16	27.713430858171
27	136	17	29.232276847912
27	138	18	30.833616878116
28	4	2	1.8798766718246
28	6	3	3.8480433933437
28	8	4	5.9329211283708
28	10	5	8.5096253508236
28	12	6	11.016453571757
28	14	7	12.548082508286
28	16	8	14.176808241918
28	120	9	16.443895426719
28	122	10	18.493144190894
28	124	11	20.253481841274
28	126	12	22.284618468303
28	128	13	23.72531356602
28	130	14	25.908758817128
28	132	15	25.233969456543
28	134	16	25.639241677177
28	136	17	25.059936376804
28	138	18	25.82459698988
29	4	2	2.5007992214756
29	6	3	4.8052584240446
29	8	4	6.3913639896549
29	10	5	8.5767000937369
29	12	6	9.9050103287911
29	14	7	11.912749948818
29	16	8	14.112333351723
29	120	9	16.060876747384
29	122	10	18.115692873416
29	124	11	20.065845625335
29	126	12	21.536403732607
29	128	13	23.641180259688
29	130	14	25.364550705696
29	132	15	26.782079120632
29	134	16	28.932314298511
29	136	17	30.321746468195
29	138	18	31.94575492295
30	6	3	1.5296135549434
30	8	4	2.5660466220463
30	10	5	2.4098704894772
30	12	6	2.3259981652023
30	14	7	2.0531103350688
30	16	8	1.7960516993888
30	120	9	1.5238018420758
30	122	10	2.4722302012146
30	124	11	1.7742226302391
30	126	12	1.7938292987179
30	128	13	1.9846632596338
30	130	14	2.5299427144462
30	132	15	1.5132985312026
30	134	16	1.3511497242609
30	136	17	1.814823131901
30	138	18	-1.2323529446032
31	6	3	2.3881097837276
31	8	4	4.8768049678668
31	10	5	6.2124026457037
31	12	6	7.520893360234
31	14	7	8.028371464953
31	16	8	8.2116812612698
31	120	9	8.0071447083366
31	122	10	13.39349175483
31	124	11	11.354381737656
31	126	12	12.527651917795
31	128	13	14.85938442965
31	130	14	20.085694744767
31	132	15	14.576278401629
31	134	16	14.298702831572
31	136	17	18.892446943893
31	138	18	0.973
32	6	3	1.4015385301784
32	8	4	1.5948854350485
32	10	5	1.7431896411348
32	12	6	1.4684440099867
32	14	7	2.1238328776089
32	16	8	2.5895389665384
32	120	9	2.4062933571171
32	122	10	2.1973432903178
32	124	11	2.3383285223972
32	126	12	1.3551151361316
32	128	13	2.311407726421
32	130	14	1.9329482747242
32	132	15	2.1847467867425
32	134	16	1.131296030281
32	136	17	-0.059585949475878
32	138	18	-0.22760421424173
33	6	3	2.4001547411577
33	8	4	3.2530756376456
33	10	5	4.2620133502382
33	12	6	4.4331748928246
33	14	7	6.958450498276
33	16	8	9.94768142871
33	120	9	11.023665564095
33	122	10	11.688062525463
33	124	11	13.936860398331
33	126	12	9.9116770217297
33	128	13	16.504213498116
33	130	14	15.677819446663
33	132	15	18.899594443785
33	134	16	12.509073084532
33	136	17	4.2534024499115
33	138	18	3.0433822755991
34	6	3	2.0199117310578
34	8	4	1.6379354011733
34	10	5	1.4645966956159
34	12	6	2.4876354420092
34	14	7	1.6593176549533
34	16	8	2.1443782452494
34	120	9	1.4290706864558
34	122	10	2.4927182673244
34	124	11	2.4216278791893
34	126	12	-0.32875916617361
34	128	13	-0.34869581889361
34	130	14	0.041192191140727
34	132	15	0.5087066501379
34	134	16	-0.50185373285785
34	136	17	0.18087317126338
34	138	18	0.4057081988547
35	6	3	3.4825779662677
35	8	4	3.8138698498027
35	10	5	4.1672147987734
35	12	6	7.6865107485287
35	14	7	6.4860688876354
35	16	8	9.1585203291345
35	120	9	7.4220228709062
35	122	10	13.135170274909
35	124	11	14.602655843389
35	126	12	1.2156404577109
35	128	13	1.0955254981144
35	130	14	2.9325984352101
35	132	15	5.2740340712945
35	134	16	0.973
35	136	17	3.6269745670865
35	138	18	4.798687504934
36	6	3	1.5644941205392
36	8	4	1.3640713949688
36	10	5	2.3615347760264
36	12	6	1.5864017033251
36	14	7	1.8240947901271
36	16	8	2.0204174152343
36	120	9	2.5244913056027
36	122	10	2.1661788052879
36	124	11	1.6795056482079
36	126	12	2.5266649506055
36	128	13	1.5178245727206
36	130	14	2.5989876058651
36	132	15	2.3615741371177
36	134	16	-0.085508188144757
36	136	17	0.23362058377825
36	138	18	-0.31099508628249
37	6	3	2.6786124171986
37	8	4	3.022450770385
37	10	5	5.7179942519597
37	12	6	5.04769838493
37	14	7	6.502240832241
37	16	8	8.1735966469563
37	120	9	11.529788781235
37	122	10	11.60139148711
37	124	11	10.463844439774
37	126	12	16.338850239612
37	128	13	11.896666133097
37	130	14	20.142096653892
37	132	15	20.599590157339
37	134	16	3.9420582177255
37	136	17	6.1811227832121
37	138	18	2.3988960636816
38	6	3	1.8293019986944
38	8	4	1.6702538255369
38	10	5	1.5024545326829
38	12	6	1.8164076185087
38	14	7	1.4846706941957
38	16	8	1.8916518694023
38	120	9	1.4985727415653
38	122	10	1.7893671946833
38	124	11	1.3011808570357
38	126	12	0.11290123385843
38	128	13	-0.86596660644282
38	130	14	0.63179694812279
38	132	15	-0.066598752839493
38	134	16	0.17694316687994
38	136	17	0.41827335478738
38	138	18	-0.75027656320017
39	6	3	2.932165777894
39	8	4	3.5523321228145
39	10	5	3.9667870009554
39	12	6	5.4014964715535
39	14	7	5.3451898018323
39	16	8	7.3634107852433
39	120	9	6.9008829901091
39	122	10	8.8145697422575
39	124	11	7.5697297114104
39	126	12	2.8130089771643
39	128	13	0.973
39	130	14	4.8468481652811
39	132	15	2.0542291669226
39	134	16	3.0511955251927
39	136	17	4.1154479662753
39	138	18	0.973
40	6	3	2.5926332155941
40	8	4	1.5627312774537
40	10	5	1.5470325991511
40	12	6	1.5334775536321
40	14	7	2.1230435040314
40	16	8	2.4413351802388
40	120	9	-0.66402824819459
40	122	10	0.29464521592017
40	124	11	-0.0012809858657423
40	126	12	0.10071463112254
40	128	13	0.15008963756263
40	130	14	-0.070001609716565
40	132	15	0.30677273222245
40	134	16	-0.31657126762438
40	136	17	-0.28662586740684
40	138	18	0.076978640560993
41	6	3	4.134773984469
41	8	4	3.6984169677187
41	10	5	4.3469802684587
41	12	6	4.9926523637541
41	14	7	7.5391209600572
41	16	8	10.061613528202
41	120	9	0.973
41	122	10	2.9167047827251
41	124	11	1.9666278904249
41	126	12	2.3063041922619
41	128	13	2.4862299069685
41	130	14	1.760730277142
41	132	15	3.0398414781275
41	134	16	0.973
41	136	17	0.973
41	138	18	2.2133496686501
42	6	3	2.5498698164476
42	8	4	2.0045285689412
42	10	5	2.0152664079564
42	12	6	2.1991455138661
42	14	7	0.34103139877917
42	16	8	0.57854730258696
42	120	9	-0.81562289739959
42	122	10	1.0390025897883
42	124	11	-0.40697103482671
42	126	12	-0.18796274936758
42	128	13	-0.19733900704887
42	130	14	-0.3612251302693
42	132	15	0.99056635394227
42	134	16	-0.7546126546571
42	136	17	-0.021085670823231
42	138	18	0.64906875614543
43	6	3	4.319396232493
43	8	4	4.7691530885867
43	10	5	5.8973295671807
43	12	6	7.6215240547694
43	14	7	2.7315489434718
43	16	8	3.5137824377963
43	120	9	0.973
43	122	10	4.9173109901052
43	124	11	0.973
43	126	12	1.2880587089302
43	128	13	1.2544993165705
43	130	14	0.973
43	132	15	4.7216556554843
43	134	16	0.973
43	136	17	1.727069040302
43	138	18	3.7009846988088
44	6	3	1.5593118736753
44	8	4	2.229622244928
44	10	5	2.1495511898538
44	12	6	2.5047667042818
44	14	7	1.3388890681788
44	16	8	1.6077916391194
44	120	9	1.9626325945137
44	122	10	2.0114652232034
44	124	11	2.1667176323012
44	126	12	1.8950140606379
44	128	13	2.1697520451853
44	130	14	1.6553734902991
44	132	15	1.4890077127609
44	134	16	1.4964233590756
44	136	17	1.5188459897414
44	138	18	1.6013400302036
45	6	3	2.4001336467644
45	8	4	4.207176283976
45	10	5	5.3469894195117
45	12	6	7.6671633688224
45	14	7	5.4180515428003
45	16	8	6.9131929981355
45	120	9	9.141017049761
45	122	10	10.527634180034
45	124	11	12.586857086197
45	126	12	12.508368823115
45	128	13	15.422591001001
45	130	14	13.564808328389
45	132	15	13.44735069489
45	134	16	14.407684905867
45	136	17	15.528003198433
45	138	18	17.204798065949
46	6	3	1.9681667215191
46	8	4	2.0848777350271
46	10	5	2.5767042224528
46	12	6	2.5068282209337
46	14	7	1.5316289365292
46	16	8	1.6287257336313
46	120	9	2.2670871848008
46	122	10	2.049248764175
46	124	11	1.7603376503801
46	126	12	2.0311366270296
46	128	13	1.4406950977165
46	130	14	2.1834452511079
46	132	15	-0.67478936058469
46	134	16	0.40527222063393
46	136	17	-0.57930530037265
46	138	18	0.76466061307583
47	6	3	3.1261287497072
47	8	4	4.3965252215164
47	10	5	6.8617852595912
47	12	6	8.4204845483797
47	14	7	6.5296176275932
47	16	8	7.6218245951697
47	120	9	11.29843070006
47	122	10	11.719557413018
47	124	11	11.446881247759
47	126	12	14.115741649509
47	128	13	11.725813566544
47	130	14	17.599912006867
47	132	15	0.973
47	134	16	6.4080358645669
47	136	17	0.27403553714669
47	138	18	8.7058297487296
48	6	3	2.304459202569
48	8	4	1.5861055656103
48	10	5	2.1853361040819
48	12	6	1.3283102350542
48	14	7	2.0077396200271
48	16	8	2.1995834029047
48	120	9	1.9485433956608
48	122	10	2.0548161260318
48	124	11	1.9501527519198
48	126	12	1.4705581072718
48	128	13	2.1047765270807
48	130	14	1.7233704460086
48	132	15	1.4175284149358
48	134	16	2.1502351778792
48	136	17	1.3894321696833
48	138	18	1.624008454755
49	6	3	4.0207744455455
49	8	4	3.8855461653815
49	10	5	6.0990782082317
49	12	6	4.8484083035257
49	14	7	7.6050107841235
49	16	8	9.5313597753378
49	120	9	9.8096670528104
49	122	10	11.504194593025
49	124	11	12.255013624683
49	126	12	10.704281999532
49	128	13	15.463085329207
49	130	14	14.375791754411
49	132	15	13.325998578543
49	134	16	19.735902977284
49	136	17	15.301397936378
49	138	18	18.165888777768
50	8	4	3684.8599814642
50	10	5	3683.0886402362
50	12	6	3679.8695174123
50	14	7	3675.4964192084
50	16	8	3669.467601893
50	120	9	3661.2685734392
50	122	10	3651.1033138867
50	124	11	3639.2700802479
50	126	12	3626.0781723643
50	128	13	3611.0909301461
50	130	14	3594.1937336964
50	132	15	3575.8208516362
50	134	16	3555.6989392239
50	136	17	3533.6138245749
50	138	18	3509.969902173
51	8	4	2343.8985656741
51	10	5	2342.9068438863
51	12	6	2341.1040474974
51	14	7	2338.6427420793
51	16	8	2335.2495503349
51	120	9	2330.6412522331
51	122	10	2324.9370072016
51	124	11	2318.2941998571
51	126	12	2310.8947612412
51	128	13	2302.4258813975
51	130	14	2292.8134909882
51	132	15	2282.3616201211
51	134	16	2270.9147698424
51	136	17	2258.3511031493
51	138	18	2244.8487217647
52	8	4	2873.3100545865
52	10	5	2872.2921410048
52	12	6	2870.4148161847
52	14	7	2867.3737851471
52	16	8	2863.6990052647
52	120	9	2859.0251391809
52	122	10	2853.7399155664
52	124	11	2847.5009703966
52	126	12	2840.4450164548
52	128	13	2832.4990501962
52	130	14	2823.3821591729
52	132	15	2813.5859162935
52	134	16	2803.9874338902
52	136	17	2793.7290568784
52	138	18	2783.0989338943
53	8	4	1925.3552044343
53	10	5	1927.3703831314
53	12	6	1931.0869510729
53	14	7	1937.1073255668
53	16	8	1944.3823420993
53	120	9	1953.6352644834
53	122	10	1964.0985004878
53	124	11	1976.4498332774
53	126	12	1990.4186105163
53	128	13	2006.1493584109
53	130	14	2024.1982035234
53	132	15	2043.591971636
53	134	16	2062.5942303851
53	136	17	2080.5362866954
53	138	18	2098.5611564717
54	8	4	2589.7296111006
54	10	5	2591.3778932818
54	12	6	2594.8477805142
54	14	7	2600.7146607204
54	16	8	2608.9787886316
54	120	9	2619.2458363504
54	122	10	2631.331352467
54	124	11	2645.1706344018
54	126	12	2660.3481152067
54	128	13	2676.904855274
54	130	14	2695.8249138142
54	132	15	2716.5420113818
54	134	16	2739.1766748068
54	136	17	2764.381021017
54	138	18	2791.5046598878
55	8	4	1899.5684190126
55	10	5	1899.5549793209
55	12	6	1899.5266867052
55	14	7	1899.4788495923
55	16	8	1899.4847924761
55	120	9	1899.5059485604
55	122	10	1899.5308517463
55	124	11	1899.5593687088
55	126	12	1899.7027240741
55	128	13	1899.9220745157
55	130	14	1900.1727351639
55	132	15	1900.4472037177
55	134	16	1900.7470769656
55	136	17	1901.0809944186
55	138	18	1901.2495400882
56	8	4	2879.1265144798
56	10	5	2880.4084239917
56	12	6	2882.6586107193
56	14	7	2886.1218052305
56	16	8	2890.5624902507
56	120	9	2895.8007545829
56	122	10	2901.8990816688
56	124	11	2908.7420973378
56	126	12	2914.0753596625
56	128	13	2923.4524900657
56	130	14	2933.9775811117
56	132	15	2944.3413844635
56	134	16	2954.8681808575
56	136	17	2965.2160203223
56	138	18	2976.0639067777
57	8	4	2355.8722944922
57	10	5	2353.6842763128
57	12	6	2349.8435610196
57	14	7	2343.9324319744
57	16	8	2336.335381924
57	120	9	2327.3149550057
57	122	10	2316.9035151117
57	124	11	2305.2737319675
57	126	12	2289.9068246029
57	128	13	2274.0724136563
57	130	14	2256.4740593946
57	132	15	2239.1453843185
57	134	16	2221.5441786498
57	136	17	2204.2421958025
57	138	18	2186.1041152863
58	10	5	2.0300680076936
58	12	6	3.6895632739645
58	14	7	5.0181769028772
58	16	8	6.9181322696619
58	120	9	9.4053658040008
58	122	10	11.656395122153
58	124	11	13.570300893649
58	126	12	15.125440140534
58	128	13	17.214615138341
58	130	14	19.440025857883
58	132	15	21.137784803426
58	134	16	23.150023660553
58	136	17	25.408664752776
58	138	18	27.227951154369
59	10	5	2.2576904759509
59	12	6	4.1638292706572
59	14	7	6.7448818191886
59	16	8	8.1505107023288
59	120	9	10.366442822688
59	122	10	11.722408691957
59	124	11	13.837723892299
59	126	12	15.649815759738
59	128	13	17.62382648855
59	130	14	20.220889477734
59	132	15	21.72766396516
59	134	16	21.289039359484
59	136	17	20.674982646093
59	138	18	20.92610141396
60	10	5	1.6484078801703
60	12	6	3.47015184802
60	14	7	5.867327617947
60	16	8	8.26453473703
60	120	9	10.267511182837
60	122	10	12.086061668047
60	124	11	13.839906652807
60	126	12	15.179023851687
60	128	13	16.558905323246
60	130	14	18.922532866104
60	132	15	20.719806906534
60	134	16	22.637623539125
60	136	17	25.207642382127
60	138	18	27.125435321848
61	10	5	2.5374351908918
61	12	6	4.4540608642856
61	14	7	6.8551107109291
61	16	8	8.8050975037972
61	120	9	10.43745832995
61	122	10	12.073389976984
61	124	11	13.50190052141
61	126	12	15.86545445465
61	128	13	18.391727586207
61	130	14	20.49325360849
61	132	15	20.179212655596
61	134	16	20.496574067118
61	136	17	20.148129600522
61	138	18	21.121763913942
62	12	6	1.6594952662708
62	14	7	1.3286136289127
62	16	8	1.8999553667847
62	120	9	2.4872335343389
62	122	10	2.251029318152
62	124	11	1.9139057714958
62	126	12	1.5551392468857
62	128	13	2.0891749978066
62	130	14	2.2254107195418
62	132	15	1.6977589455433
62	134	16	2.0122388571268
62	136	17	2.2586410922231
62	138	18	1.8192864015931
63	12	6	2.7682221962353
63	14	7	2.970550201659
63	16	8	4.6420562198841
63	120	9	7.2783699743056
63	122	10	8.1421834314309
63	124	11	8.2548060983955
63	126	12	7.8281593670773
63	128	13	11.079104241481
63	130	14	13.152616071701
63	132	15	11.650891997935
63	134	16	14.599462904791
63	136	17	17.681844459454
63	138	18	16.226254681289
64	12	6	1.9061387947062
64	14	7	2.5810525485314
64	16	8	1.4056288831402
64	120	9	2.2159321203595
64	122	10	1.3559658692684
64	124	11	2.1153152003419
64	126	12	1.8120918674395
64	128	13	1.9740107288118
64	130	14	2.5970629891846
64	132	15	1.5067744874253
64	134	16	-0.43862460567616
64	136	17	-0.61405671339016
64	138	18	0.25111876786686
65	12	6	3.230309579731
65	14	7	5.659262908904
65	16	8	4.3142377071955
65	120	9	7.2490796442042
65	122	10	5.6550358116468
65	124	11	9.0766531766091
65	126	12	9.0535221148273
65	128	13	10.850149565668
65	130	14	15.505341417732
65	132	15	10.99573782194
65	134	16	0.77788505373811
65	136	17	0.973
65	138	18	4.2324357719511
66	12	6	1.8217439678498
66	14	7	2.397175769927
66	16	8	2.397207119083
66	120	9	2.0029764458071
66	122	10	1.8185504852096
66	124	11	1.7538449847605
66	126	12	1.3391171988798
66	128	13	1.3798814715585
66	130	14	2.363627542858
66	132	15	1.7972740404308
66	134	16	1.9178166325903
66	136	17	2.5700188430026
66	138	18	1.9177929397207
67	12	6	2.804796894528
67	14	7	4.801367873505
67	16	8	6.3354721499798
67	120	9	6.6616029447032
67	122	10	7.1530878391664
67	124	11	7.8723329910633
67	126	12	7.0639963060147
67	128	13	7.8349271092746
67	130	14	13.427653564863
67	132	15	11.905894965668
67	134	16	13.736688562384
67	136	17	19.418673970997
67	138	18	16.799337807246
68	12	6	1.9166256733937
68	14	7	2.4010498466436
68	16	8	1.949986792868
68	120	9	1.6323608261533
68	122	10	1.6359316470334
68	124	11	1.4285105444258
68	126	12	2.3635539332405
68	128	13	2.5262731315568
68	130	14	2.1015260222834
68	132	15	-0.31404095289449
68	134	16	0.31736141152214
68	136	17	-0.34844446659554
68	138	18	0.97363431341946
69	12	6	3.3903876774916
69	14	7	5.4371798560784
69	16	8	5.7357485329579
69	120	9	5.824628775116
69	122	10	6.615046830099
69	124	11	6.6370277241465
69	126	12	11.281492464377
69	128	13	13.769384777014
69	130	14	13.272837164627
69	132	15	1.3152804642153
69	134	16	4.4618734154624
69	136	17	1.1455780593964
69	138	18	7.9555374650654
70	14	7	3684.8599814642
70	16	8	3682.8906581267
70	120	9	3678.7360743173
70	122	10	3672.3373382694
70	124	11	3664.442318972
70	126	12	3654.64741572
70	128	13	3642.6662089455
70	130	14	3629.1722351717
70	132	15	3613.6724576479
70	134	16	3596.9977886389
70	136	17	3578.0913445375
70	138	18	3557.2130091694
71	14	7	2343.8985656741
71	16	8	2342.7959995337
71	120	9	2340.4661131312
71	122	10	2336.8647204871
71	124	11	2332.4211766044
71	126	12	2326.9292256263
71	128	13	2320.1955535998
71	130	14	2312.630736747
71	132	15	2303.8944475158
71	134	16	2294.408647375
71	136	17	2283.6532464719
71	138	18	2271.7760861836
72	14	7	2873.3100545865
72	16	8	2872.1577128571
72	120	9	2869.852711286
72	122	10	2866.800960261
72	124	11	2862.7433190189
72	126	12	2858.0899684943
72	128	13	2852.7641781847
72	130	14	2846.3774300869
72	132	15	2839.1419958
72	134	16	2831.1354122241
72	136	17	2822.050779712
72	138	18	2812.1239690469
73	14	7	1925.3552044343
73	16	8	1927.63651254
73	120	9	1932.1997585231
73	122	10	1938.2413555359
73	124	11	1946.2743284117
73	126	12	1955.4866358373
73	128	13	1966.0301823328
73	130	14	1978.674122783
73	132	15	1992.9982199376
73	134	16	2008.8489728393
73	136	17	2026.8339552961
73	138	18	2046.486210401
74	14	7	2589.7296111006
74	16	8	2592.1994553522
74	120	9	2596.1431582132
74	122	10	2602.5009719281
74	124	11	2611.4320856725
74	126	12	2622.0245260202
74	128	13	2634.9408206216
74	130	14	2649.167181052
74	132	15	2665.5966197327
74	134	16	2684.6164338681
74	136	17	2704.3535308096
74	138	18	2723.6738713686
75	14	7	1899.5684190126
75	16	8	1899.5482805038
75	120	9	1899.5161245108
75	122	10	1899.4714444095
75	124	11	1899.4898476935
75	126	12	1899.5116742757
75	128	13	1899.5382893481
75	130	14	1899.5676039173
75	132	15	1899.7722584016
75	134	16	1900.0242406525
75	136	17	1900.2857257585
75	138	18	1900.541689506
76	14	7	2879.1265144798
76	16	8	2879.9241152369
76	120	9	2881.6785520834
76	122	10	2884.3864276328
76	124	11	2888.2595316869
76	126	12	2893.3613432751
76	128	13	2899.7205048329
76	130	14	2907.1444127832
76	132	15	2915.5885427666
76	134	16	2924.8698792693
76	136	17	2934.97113992
76	138	18	2945.9512968134
77	14	7	2355.8722944922
77	16	8	2354.5109152838
77	120	9	2351.5163671671
77	122	10	2346.8944489471
77	124	11	2340.2836686993
77	126	12	2331.5156844897
77	128	13	2320.6060312816
77	130	14	2307.9890150827
77	132	15	2293.6381199072
77	134	16	2277.9309493864
77	136	17	2261.0427629359
77	138	18	2242.6851595354
78	16	8	2.2569679071428
78	120	9	4.7633014335996
78	122	10	7.3426179667702
78	124	11	9.0596189790172
78	126	12	11.229527956434
78	128	13	13.743810708658
78	130	14	15.469798260438
78	132	15	17.792397300503
78	134	16	19.184010653733
78	136	17	21.751641658833
78	138	18	24.020279378002
79	16	8	2.5558465809328
79	120	9	5.1123987218831
79	122	10	6.7686583104311
79	124	11	8.9996814581333
79	126	12	10.320940155885
79	128	13	11.812383953715
79	130	14	14.165544710075
79	132	15	16.047895786539
79	134	16	17.758273206279
79	136	17	20.149341426184
79	138	18	22.017257945798
80	16	8	2.4700326033402
80	120	9	3.9440036101034
80	122	10	6.3582767515443
80	124	11	8.9315169031499
80	126	12	10.592918500304
80	128	13	12.916877654917
80	130	14	14.227002621442
80	132	15	16.43148770819
80	134	16	19.022301507113
80	136	17	19.739678117983
80	138	18	19.322867232864
81	16	8	1.5787855621893
81	120	9	3.4727644605096
81	122	10	5.3600185096264
81	124	11	7.6664931755047
81	126	12	10.150472970307
81	128	13	12.635485038348
81	130	14	14.648054523556
81	132	15	16.661046611867
81	134	16	18.255646753614
81	136	17	19.690600089286
81	138	18	21.403851042129
82	120	9	2.5063335264567
82	122	10	2.5793165331706
82	124	11	1.7170010122471
82	126	12	2.1699089774163
82	128	13	2.5142827522242
82	130	14	1.7259875517804
82	132	15	2.322599040065
82	134	16	1.3916133532301
82	136	17	2.5676310051
82	138	18	2.2686377191683
83	120	9	4.2269252057314
83	122	10	6.0650614917042
83	124	11	5.3645728038446
83	126	12	7.6549872223864
83	128	13	10.340780399748
83	130	14	8.6331271844365
83	132	15	12.447861705111
83	134	16	9.1215626901538
83	136	17	16.569906514392
83	138	18	16.681912010922
84	120	9	2.5565521409502
84	122	10	1.656259588548
84	124	11	2.2310231477022
84	126	12	1.3212586977519
84	128	13	1.4914437978296
84	130	14	2.3531607563607
84	132	15	1.8823510764632
84	134	16	1.71037741974
84	136	17	2.3910682199057
84	138	18	1.8679165196139
85	120	9	4.5188633059892
85	122	10	4.1669350738048
85	124	11	6.4503996215291
85	126	12	4.9958722724294
85	128	13	6.0779083731325
85	130	14	10.089379199691
85	132	15	9.5460161408375
85	134	16	9.8039749406949
85	136	17	14.448720823937
85	138	18	13.06954189343
86	120	9	1.4739710067632
86	122	10	2.4142731414409
86	124	11	2.5732401516056
86	126	12	1.6614015971543
86	128	13	2.3239591546124
86	130	14	1.3101249665255
86	132	15	2.2044850867474
86	134	16	2.590813798923
86	136	17	0.71737661086993
86	138	18	-0.41681088511832
87	120	9	2.7069427640022
87	122	10	5.1399679441051
87	124	11	7.1455629701209
87	126	12	5.9721878518434
87	128	13	9.1666076454247
87	130	14	6.5543652435073
87	132	15	11.042220269592
87	134	16	14.540757503292
87	136	17	6.1855380035828
87	138	18	0.76760602999191
88	120	9	1.8939788983203
88	122	10	1.8872540491167
88	124	11	2.3064746658783
88	126	12	2.4839797948021
88	128	13	2.4850120680407
88	130	14	2.012569485209
88	132	15	2.0129920883104
88	134	16	1.5946001417469
88	136	17	1.4349533356726
88	138	18	1.7132509528426
89	120	9	2.8665347254088
89	122	10	3.8206806337983
89	124	11	5.782957386039
89	126	12	7.7727412313497
89	128	13	9.4731331783041
89	130	14	9.2117007765256
89	132	15	10.423768147174
89	134	16	9.5683088089023
89	136	17	9.5746122673088
89	138	18	11.885865963566
37	241	19	0.973
37	243	20	4.4587692396542
37	245	21	0.973
37	247	22	0.973
37	249	23	0.973
37	251	24	0.973
37	253	25	0.973
37	255	26	3.5500004792099
37	257	27	2.5882835611894
37	259	28	6.665285830133
37	368	29	9.2060862502975
37	370	30	6.3018529283578
37	372	31	10.323647075908
37	374	32	8.9639070842839
37	376	33	10.846978852947
37	378	34	9.2488306121506
37	380	35	12.448997018108
37	382	36	17.226658927498
37	384	37	17.78954718155
37	386	38	20.75053958208
37	495	39	3.9118696938873
37	497	40	0.973
37	499	41	4.3320776709571
37	501	42	12.386713677839
37	503	43	0.973
37	505	44	12.485005947567
36	241	19	-2.1409025530104
36	243	20	0.075899170934381
36	245	21	-4.0186228684085
36	247	22	-4.5
36	249	23	-4.1567709682044
36	251	24	-4.5
36	253	25	-3.6536239434266
36	255	26	1.3424932939893
36	257	27	0.64002553860191
36	259	28	2.2281300266739
36	368	29	2.5623109196546
36	370	30	1.3544627618045
36	372	31	2.1809670126531
36	374	32	1.5985931934323
36	376	33	1.8051334520103
36	378	34	1.3170689943712
36	380	35	1.7596496497281
36	382	36	2.3293848943897
36	384	37	2.1516010926804
36	386	38	2.3187317825701
36	495	39	-0.10837658043019
36	497	40	-0.89451719834469
36	499	41	-0.012607147917151
36	501	42	1.1042630213313
36	503	43	-1.1277990458533
36	505	44	1.1190965780057
23	241	19	25.905553833366
23	243	20	25.981453004301
23	245	21	21.962830135892
23	247	22	17.462830135892
23	249	23	13.306059167688
23	251	24	8.8060591676878
23	253	25	5.1524352242612
23	255	26	6.4949285182505
23	257	27	7.1349540568525
23	259	28	9.3630840835264
23	368	29	11.925395003181
23	370	30	13.279857764985
23	372	31	15.460824777639
23	374	32	17.059417971071
23	376	33	18.864551423081
23	378	34	20.181620417452
23	380	35	21.94127006718
23	382	36	24.27065496157
23	384	37	26.42225605425
23	386	38	28.740987836821
23	495	39	28.63261125639
23	497	40	27.738094058046
23	499	41	27.725486910129
23	501	42	28.82974993146
23	503	43	27.701950885606
23	505	44	28.821047463612
7	241	19	1916.8518043491
7	243	20	1917.9273188056
7	245	21	1918.8364804801
7	247	22	1919.5593625399
7	249	23	1921.8541869064
7	251	24	1924.2688192485
7	253	25	1925.6816233754
7	255	26	1929.3357118711
7	257	27	1936.2983703625
7	259	28	1945.0204096802
7	368	29	1955.3296947418
7	370	30	1966.8098879967
7	372	31	1980.1754871972
7	374	32	1994.8237698655
7	376	33	2010.9143207559
7	378	34	2028.1282678619
7	380	35	2046.8431110987
7	382	36	2067.5448071021
7	384	37	2090.3134540074
7	386	38	2115.4684786993
7	495	39	2140.5286487686
7	497	40	2164.8059089971
7	499	41	2189.0134833543
7	501	42	2214.0725369306
7	503	43	2238.1512983858
7	505	44	2263.2027877062
6	241	19	2900.6341143995
6	243	20	2926.5918925573
6	245	21	2948.5347097003
6	247	22	2965.981627338
6	249	23	2979.0093579188
6	251	24	2987.4752688783
6	253	25	2992.4286829995
6	255	26	2997.4125813774
6	257	27	2996.5873303764
6	259	28	2993.2882590826
6	368	29	2987.2938936486
6	370	30	2980.6187000525
6	372	31	2972.8472313837
6	374	32	2964.105829089
6	376	33	2954.258885751
6	378	34	2943.7244570088
6	380	35	2932.2715240305
6	382	36	2919.6026956644
6	384	37	2906.2089991443
6	386	38	2892.3071383069
6	495	39	2878.457698637
6	497	40	2865.0409321125
6	499	41	2851.5256618008
6	501	42	2837.2711576189
6	503	43	2823.5742793703
6	505	44	2809.3240780132
49	241	19	17.088008764535
49	243	20	20.972370340843
49	245	21	-1.443550416715
49	247	22	11.615708811373
49	249	23	3.2366950630697
49	251	24	12.851169075596
49	253	25	6.6162137736229
49	255	26	0.973
49	257	27	0.973
49	259	28	0.973
49	368	29	0.973
49	370	30	0.973
49	372	31	0.973
49	374	32	0.973
49	376	33	3.378732952318
49	378	34	1.5389888657702
49	380	35	5.5475717187787
49	382	36	7.5118882764092
49	384	37	7.1765117013086
49	386	38	6.6870912275198
49	495	39	0.973
49	497	40	0.973
49	499	41	8.3972307253057
49	501	42	6.5628274096886
49	503	43	9.9622600052124
49	505	44	9.0755894164329
49	507	45	9.7476352445712
49	509	46	15.57474140436
49	511	47	17.728020433792
48	241	19	1.3648316577077
48	243	20	1.685406828612
48	245	21	-0.95559828875121
48	247	22	0.59839334359858
48	249	23	-0.39205927990842
48	251	24	0.72417050960939
48	253	25	-0.014941513189115
48	255	26	-3.9956726995916
48	257	27	-4.3106285390716
48	259	28	-4.5
48	368	29	-4.5
48	370	30	-4.5
48	372	31	-4.5
48	374	32	-4.5
48	376	33	1.4645417755703
48	378	34	0.098894314566248
48	380	35	2.1253627492348
48	382	36	2.3636888966663
48	384	37	1.8354299662868
48	386	38	1.4463647838216
48	495	39	-1.4686114297723
48	497	40	-3.6834189543178
48	499	41	2.5366576599656
48	501	42	1.5609465687769
48	503	43	2.2241574415937
48	505	44	1.7162051725201
48	507	45	1.6627437446266
48	509	46	2.5530080158263
48	511	47	2.5718988770619
29	241	19	33.310586580657
29	243	20	34.995993409269
29	245	21	34.040395120518
29	247	22	34.638788464117
29	249	23	34.246729184208
29	251	24	34.970899693818
29	253	25	34.955958180629
29	255	26	30.960285481037
29	257	27	26.649656941965
29	259	28	22.149656941965
29	368	29	17.649656941965
29	370	30	13.149656941965
29	372	31	8.6496569419654
29	374	32	4.1496569419654
29	376	33	5.6141987175357
29	378	34	5.7130930321019
29	380	35	7.8384557813367
29	382	36	10.202144678003
29	384	37	12.03757464429
29	386	38	13.483939428111
29	495	39	12.015327998339
29	497	40	8.3319090440213
29	499	41	10.868566703987
29	501	42	12.429513272764
29	503	43	14.653670714357
29	505	44	16.369875886878
29	507	45	18.032619631504
29	509	46	20.585627647331
29	511	47	23.157526524392
19	241	19	2177.9375001819
19	243	20	2160.4008086559
19	245	21	2143.3474226594
19	247	22	2125.9931739216
19	249	23	2108.7601192509
19	251	24	2088.6628311096
19	253	25	2067.8470132611
19	255	26	2044.3565119184
19	257	27	2026.1677548191
19	259	28	2011.5965829496
19	368	29	2000.0601177693
19	370	30	1991.4030246062
19	372	31	1985.6786335884
19	374	32	1982.8878225862
19	376	33	1978.1114324916
19	378	34	1973.8287284956
19	380	35	1968.1196661218
19	382	36	1960.5115332627
19	384	37	1951.4315318102
19	386	38	1941.2605303245
19	495	39	1932.197309626
19	497	40	1926.4844993317
19	499	41	1919.2273512141
19	501	42	1910.8297179902
19	503	43	1900.8667902243
19	505	44	1890.539173716
19	507	45	1878.8432193337
19	509	46	1864.930483601
19	511	47	1849.3216624742
18	241	19	3394.6933382068
18	243	20	3364.4083702908
18	245	21	3334.9477784467
18	247	22	3304.9699273287
18	249	23	3275.37654059
18	251	24	3246.7876884966
18	253	25	3218.6701045968
18	255	26	3200.1813241669
18	257	27	3180.5981357595
18	259	28	3163.6758384403
18	368	29	3150.1261553645
18	370	30	3140.1865480372
18	372	31	3133.7713858053
18	374	32	3130.6094661811
18	376	33	3128.8077549234
18	378	34	3132.5907705487
18	380	35	3137.9850235201
18	382	36	3145.0069251182
18	384	37	3153.2943546805
18	386	38	3162.5775534589
18	495	39	3170.8496670197
18	497	40	3175.0279265315
18	499	41	3183.1119760839
18	501	42	3192.2666984522
18	503	43	3202.9982363819
18	505	44	3215.6895280186
18	507	45	3229.3938339386
18	509	46	3244.5535613461
18	511	47	3261.6458654724
0	241	19	1087.6550462986
0	243	20	1064.682935772
0	245	21	1046.2848937929
0	247	22	1032.332809109
0	249	23	1022.8631803779
0	251	24	1011.8464251808
0	253	25	1002.6094953681
0	255	26	992.84844374912
0	257	27	982.81072629356
0	259	28	971.43121492991
0	368	29	957.39196469353
0	370	30	942.01342580012
0	372	31	924.34205367862
0	374	32	904.58646475695
0	376	33	882.73538928764
0	378	34	859.15517304002
0	380	35	839.72434432425
0	382	36	824.23591638901
0	384	37	810.46932441573
0	386	38	796.49036919156
0	495	39	783.88215737685
0	497	40	759.91007625953
0	499	41	735.33820415249
0	501	42	711.0889135924
0	503	43	685.38012603087
0	505	44	664.0739275398
0	507	45	646.86059786101
0	509	46	634.10265481254
0	511	47	625.22783405663
0	513	48	619.98174725293
0	613	49	616.13756985359
0	615	50	619.1428710275
0	617	51	624.32839113255
0	619	52	630.83358653046
0	621	53	637.18928804991
0	623	54	643.77458899788
0	625	55	651.23166271957
0	627	56	657.66614720549
0	629	57	662.57806469926
0	631	58	666.37722226331
0	730	59	670.57996953586
1	241	19	1748.9678090139
1	243	20	1747.8698164686
1	245	21	1746.1656340053
1	247	22	1745.0217890059
1	249	23	1744.9430951028
1	251	24	1744.897047624
1	253	25	1741.5844236842
1	255	26	1741.5772185497
1	257	27	1739.4626750844
1	259	28	1736.9870483347
1	368	29	1736.4361075801
1	370	30	1736.1956031738
1	372	31	1735.9192412327
1	374	32	1735.6102843014
1	376	33	1735.2685561327
1	378	34	1734.8997859948
1	380	35	1721.825130816
1	382	36	1700.3636193298
1	384	37	1675.2660438656
1	386	38	1648.3505644429
1	495	39	1620.6697552425
1	497	40	1601.9345787351
1	499	41	1584.2025018569
1	501	42	1566.887274457
1	503	43	1553.4202252511
1	505	44	1541.2476337338
1	507	45	1530.9955879503
1	509	46	1522.1485995947
1	511	47	1515.5852410443
1	513	48	1511.3600041085
1	613	49	1504.4352037901
1	615	50	1494.6242209942
1	617	51	1485.7711441055
1	619	52	1474.9661496723
1	621	53	1462.2622488017
1	623	54	1447.602439845
1	625	55	1431.0019417052
1	627	56	1414.4172422815
1	629	57	1397.6836562244
1	631	58	1380.3846339315
1	730	59	1362.3540709528
2	241	19	992.56422998243
2	243	20	1005.5232408369
2	245	21	1018.2594991255
2	247	22	1031.4995310869
2	249	23	1045.8038389532
2	251	24	1061.8645626849
2	253	25	1081.364400583
2	255	26	1098.951037635
2	257	27	1117.269358024
2	259	28	1136.4083971583
2	368	29	1155.423063376
2	370	30	1173.5026005576
2	372	31	1190.6558450566
2	374	32	1208.2175732351
2	376	33	1221.0513536057
2	378	34	1232.7074297342
2	380	35	1244.9243968562
2	382	36	1260.0228332519
2	384	37	1284.0526067499
2	386	38	1310.021137758
2	495	39	1336.9471125385
2	497	40	1363.9787424102
2	499	41	1386.8561427245
2	501	42	1408.8098953917
2	503	43	1431.0006159825
2	505	44	1448.1809120632
2	507	45	1465.1816739155
2	509	46	1482.7290979818
2	511	47	1500.4958375056
2	513	48	1518.6918986581
2	613	49	1540.1209402913
2	615	50	1562.9136401996
2	617	51	1584.6063084163
2	619	52	1603.6611923095
2	621	53	1621.0589068757
2	623	54	1635.8199795833
2	625	55	1648.4391590932
2	627	56	1652.848173624
2	629	57	1659.1171699546
2	631	58	1662.8675761178
2	730	59	1664.5689501332
3	241	19	1427.552990478
3	243	20	1401.7919670763
3	245	21	1376.5885263784
3	247	22	1351.8814437612
3	249	23	1327.3142488804
3	251	24	1303.625763043
3	253	25	1282.4306184697
3	255	26	1260.1708897436
3	257	27	1239.1688834754
3	259	28	1217.2259208384
3	368	29	1195.425552103
3	370	30	1173.7212757603
3	372	31	1150.5445279796
3	374	32	1127.6790494747
3	376	33	1102.1731805389
3	378	34	1076.5747316376
3	380	35	1051.5407983648
3	382	36	1027.5978006981
3	384	37	1011.7456893431
3	386	38	999.83015110147
3	495	39	991.84429923428
3	497	40	982.85551078685
3	499	41	967.04922837
3	501	42	949.28630367632
3	503	43	931.65337012316
3	505	44	909.35041743229
3	507	45	885.89126560266
3	509	46	863.72623424097
3	511	47	841.08755456881
3	513	48	818.68084351993
3	613	49	800.45315204741
3	615	50	783.0311355227
3	617	51	763.94615681337
3	619	52	743.58511993203
3	621	53	721.90322054462
3	623	54	696.93148532504
3	625	55	670.74476091298
3	627	56	643.07604578785
3	629	57	614.64955553511
3	631	58	585.85015048794
3	730	59	558.01242464256
4	241	19	2747.4435103675
4	243	20	2738.2180089155
4	245	21	2728.7302259681
4	247	22	2721.3735155202
4	249	23	2716.1478775718
4	251	24	2712.6651828324
4	253	25	2711.9507714615
4	255	26	2714.3211969598
4	257	27	2715.7146975009
4	259	28	2718.1681645728
4	368	29	2721.541706903
4	370	30	2725.8801589159
4	372	31	2730.9089681381
4	374	32	2737.0570758825
4	376	33	2743.9117737995
4	378	34	2751.5359148746
4	380	35	2759.9812326415
4	382	36	2769.4924320332
4	384	37	2779.9917376342
4	386	38	2790.2962189717
4	495	39	2800.3280954835
4	497	40	2810.0041413336
4	499	41	2819.1654960203
4	501	42	2828.3340978276
4	503	43	2837.5535304585
4	505	44	2846.5640599449
4	507	45	2855.6933723776
4	509	46	2863.8435524398
4	511	47	2870.5369248881
4	513	48	2875.2014317728
4	613	49	2877.837073094
4	615	50	2880.2288821619
4	617	51	2880.9236277319
4	619	52	2875.7437822368
4	621	53	2868.2412294042
4	623	54	2858.5583356212
4	625	55	2847.1393014423
4	627	56	2833.2343517646
4	629	57	2817.1045005811
4	631	58	2798.5910772564
4	730	59	2777.9733863517
5	241	19	2161.7345133751
5	243	20	2178.892073057
5	245	21	2196.5374230702
5	247	22	2210.2194108981
5	249	23	2219.9380365405
5	251	24	2226.4151416773
5	253	25	2229.5683591507
5	255	26	2229.7339260372
5	257	27	2227.4981963099
5	259	28	2222.9350391317
5	368	29	2216.6606513168
5	370	30	2208.5916461643
5	372	31	2199.238658646
5	374	32	2187.8039088963
5	376	33	2175.0549853984
5	378	34	2160.8749890687
5	380	35	2145.1677016829
5	382	36	2127.9263403238
5	384	37	2110.1216123741
5	386	38	2092.6472675127
5	495	39	2075.6352060581
5	497	40	2057.7658953456
5	499	41	2039.6287197014
5	501	42	2021.4771965833
5	503	43	2003.2250412324
5	505	44	1985.3864615102
5	507	45	1967.3127214616
5	509	46	1951.1774169814
5	511	47	1937.9262247836
5	513	48	1928.6916755761
5	613	49	1923.473769359
5	615	50	1916.1162220207
5	617	51	1907.7341311295
5	619	52	1903.0368372336
5	621	53	1901.8450759809
5	623	54	1900.9977639338
5	625	55	1899.973575365
5	627	56	1899.2931185514
5	629	57	1898.5570106306
5	631	58	1898.0850508019
5	730	59	1897.9802073593
8	241	19	1548.1979537413
8	243	20	1532.7405884466
8	245	21	1518.2748897343
8	247	22	1503.8007936519
8	249	23	1489.0915302171
8	251	24	1474.5659133458
8	253	25	1460.0887037802
8	255	26	1445.4531722694
8	257	27	1431.2066522302
8	259	28	1417.5656020685
8	368	29	1403.6680267735
8	370	30	1389.1620169278
8	372	31	1374.5334423272
8	374	32	1359.7332251699
8	376	33	1345.3689812845
8	378	34	1330.5822677655
8	380	35	1315.925757762
8	382	36	1300.6318831498
8	384	37	1286.0324270207
8	386	38	1271.3734556021
8	495	39	1256.6051668307
8	497	40	1242.2202112195
8	499	41	1227.7122106719
8	501	42	1212.9067783522
8	503	43	1198.1906792936
8	505	44	1183.774876466
8	507	45	1168.6560584843
8	509	46	1154.2660509897
8	511	47	1139.8804854092
8	513	48	1124.9668059575
8	613	49	1110.5333217379
8	615	50	1097.2914968131
8	617	51	1083.6287837549
8	619	52	1070.0970086711
8	621	53	1056.4230069449
8	623	54	1043.2785397405
8	625	55	1029.1806437924
8	627	56	1016.0946999639
8	629	57	1003.5412302708
8	631	58	991.50492144253
8	730	59	979.19004761007
9	241	19	151.45739590719
9	243	20	158.54366527332
9	245	21	165.17554060456
9	247	22	172.32091405981
9	249	23	179.81793524427
9	251	24	187.2213554009
9	253	25	194.60010330943
9	255	26	202.06522090108
9	257	27	210.35912701008
9	259	28	218.6397033315
9	368	29	226.95965938775
9	370	30	234.8390335816
9	372	31	242.78498249703
9	374	32	250.82416421359
9	376	33	258.26767231626
9	378	34	265.7970690612
9	380	35	273.26016615647
9	382	36	281.04780940626
9	384	37	288.48185466015
9	386	38	295.81185553905
9	495	39	302.90669213785
9	497	40	309.81737157558
9	499	41	317.242309683
9	501	42	325.00936801306
9	503	43	332.72956133879
9	505	44	340.2922166547
9	507	45	348.29963510869
9	509	46	355.99678150327
9	511	47	363.69155193917
9	513	48	371.66880796664
9	613	49	380.57906463034
9	615	50	390.87971422631
9	617	51	400.50022109903
9	619	52	409.84509749598
9	621	53	419.28535698113
9	623	54	428.2328328395
9	625	55	437.82931032972
9	627	56	448.48422839111
9	629	57	459.91353214921
9	631	58	470.95965944738
9	730	59	482.47107603448
10	241	19	2360.8796593452
10	243	20	2366.9494841183
10	245	21	2372.9063185656
10	247	22	2378.9311333288
10	249	23	2385.1277600781
10	251	24	2391.2289317075
10	253	25	2397.7939481915
10	255	26	2403.9344718607
10	257	27	2410.3871730497
10	259	28	2416.4837358243
10	368	29	2422.6822557793
10	370	30	2429.1839897872
10	372	31	2435.3080156701
10	374	32	2441.8641221822
10	376	33	2448.1849552442
10	378	34	2454.6810796354
10	380	35	2461.159045301
10	382	36	2467.6481776232
10	384	37	2473.9339429085
10	386	38	2480.4640187237
10	495	39	2486.6055889955
10	497	40	2492.8694185513
10	499	41	2499.5126111109
10	501	42	2506.0388225003
10	503	43	2512.5976096459
10	505	44	2519.0066616013
10	507	45	2525.1992045006
10	509	46	2531.7566639981
10	511	47	2538.5791681267
10	513	48	2545.1122946197
10	613	49	2551.7172839374
10	615	50	2558.5343857682
10	617	51	2564.8913390763
10	619	52	2571.4731751047
10	621	53	2578.1818351965
10	623	54	2584.9795196156
10	625	55	2591.6805259289
10	627	56	2598.0756105633
10	629	57	2604.4482074378
10	631	58	2610.9197604537
10	730	59	2617.5879539828
11	241	19	3251.2756600767
11	243	20	3239.88030733
11	245	21	3228.4282097659
11	247	22	3216.8454190932
11	249	23	3204.9323174736
11	251	24	3193.5799133833
11	253	25	3181.425882363
11	255	26	3170.0577288574
11	257	27	3158.1116308381
11	259	28	3146.8248635831
11	368	29	3135.3493396455
11	370	30	3123.3124655552
11	372	31	3111.9748549444
11	374	32	3099.8373192482
11	376	33	3088.1353530311
11	378	34	3076.1088642088
11	380	35	3064.1159932326
11	382	36	3052.1024490578
11	384	37	3040.4654049697
11	386	38	3028.3760607591
11	495	39	3017.0059696437
11	497	40	3005.4095358933
11	499	41	2993.1107749319
11	501	42	2981.0285850601
11	503	43	2968.8860866187
11	505	44	2957.0207978618
11	507	45	2945.5818539132
11	509	46	2934.3392678166
11	511	47	2922.2014942111
11	513	48	2910.5785462708
11	613	49	2898.8277486905
11	615	50	2886.6995861994
11	617	51	2875.3900642672
11	619	52	2863.680458217
11	621	53	2851.7452221429
11	623	54	2839.6516047606
11	625	55	2827.6953746054
11	627	56	2816.0967916576
11	629	57	2804.5389941197
11	631	58	2792.8017226453
11	730	59	2780.7078098699
12	241	19	3452.7487514125
12	243	20	3442.4739440548
12	245	21	3432.4454191857
12	247	22	3422.6893140096
12	249	23	3412.373193263
12	251	24	3402.0382770508
12	253	25	3391.6282956931
12	255	26	3381.5446072095
12	257	27	3371.5110377375
12	259	28	3361.9030595034
12	368	29	3352.6815523803
12	370	30	3343.6797822811
12	372	31	3334.6590820365
12	374	32	3325.2579149066
12	376	33	3314.8817273382
12	378	34	3304.5875776848
12	380	35	3294.1415093444
12	382	36	3284.3579269904
12	384	37	3274.4558196727
12	386	38	3264.242200292
12	495	39	3252.7422027265
12	497	40	3241.2758565676
12	499	41	3230.9444030514
12	501	42	3220.5458763397
12	503	43	3209.7382984971
12	505	44	3198.7914156093
12	507	45	3188.143497556
12	509	46	3177.6286212932
12	511	47	3166.8153870672
12	513	48	3155.798060199
12	613	49	3145.1669998595
12	615	50	3134.1864603368
12	617	51	3124.2577384694
12	619	52	3114.9644503846
12	621	53	3105.5504359545
12	623	54	3095.5341517841
12	625	55	3086.2202675205
12	627	56	3077.0986791914
12	629	57	3068.3823303959
12	631	58	3059.2808850896
12	730	59	3050.2441994349
13	241	19	1660.3740247992
13	243	20	1666.52949504
13	245	21	1672.5374214412
13	247	22	1678.382145628
13	249	23	1684.5623660493
13	251	24	1690.7538465288
13	253	25	1696.990297318
13	255	26	1703.0312713449
13	257	27	1709.4636092104
13	259	28	1716.7212616904
13	368	29	1723.7983659725
13	370	30	1730.7068316783
13	372	31	1737.9697906284
13	374	32	1745.7341016007
13	376	33	1753.7852128658
13	378	34	1761.7726691153
13	380	35	1769.8780024024
13	382	36	1777.4692982983
13	384	37	1786.4254456431
13	386	38	1795.8355090478
13	495	39	1804.9141282596
13	497	40	1813.9184061884
13	499	41	1822.9143933951
13	501	42	1831.9995625872
13	503	43	1841.4421188242
13	505	44	1851.0063855629
13	507	45	1860.3094474043
13	509	46	1869.4962709352
13	511	47	1878.8993726014
13	513	48	1888.4042520925
13	613	49	1897.5758913295
13	615	50	1907.0490336043
13	617	51	1916.7720876568
13	619	52	1926.6180602753
13	621	53	1936.5919389998
13	623	54	1947.2039052684
13	625	55	1957.425577807
13	627	56	1968.1446131414
13	629	57	1978.3874400871
13	631	58	1989.082804788
13	730	59	1999.7020685986
14	241	19	3491.538330493
14	243	20	3518.3735728784
14	245	21	3546.0099757765
14	247	22	3573.105865158
14	249	23	3600.8198313335
14	251	24	3625.008584034
14	253	25	3645.3275478181
14	255	26	3661.7220058372
14	257	27	3674.1896840336
14	259	28	3682.7331619618
14	368	29	3687.5802688905
14	370	30	3689.7565472717
14	372	31	3686.5885865727
14	374	32	3680.9482497974
14	376	33	3673.2097911329
14	378	34	3663.301309714
14	380	35	3651.6302500131
14	382	36	3638.3144528066
14	384	37	3623.1296824837
14	386	38	3606.0720990657
14	495	39	3587.5119584193
14	497	40	3567.0113682535
14	499	41	3544.6693480618
14	501	42	3521.1080990754
14	503	43	3495.9075530946
14	505	44	3468.9909491963
14	507	45	3441.6959793941
14	509	46	3415.0162461276
14	511	47	3388.1246255581
14	513	48	3360.5375656085
14	613	49	3333.1363819957
14	615	50	3306.1824518696
14	617	51	3278.7307355855
14	619	52	3252.68802067
14	621	53	3227.3843160633
14	623	54	3205.5637477675
14	625	55	3188.1730980623
14	627	56	3170.8899566742
14	629	57	3155.96102178
14	631	58	3144.2316970496
14	730	59	3136.1998194317
15	241	19	2237.8225445968
15	243	20	2253.3708756761
15	245	21	2269.0895255515
15	247	22	2284.5007496469
15	249	23	2300.2635148873
15	251	24	2313.9647882642
15	253	25	2325.3672313793
15	255	26	2334.5677075451
15	257	27	2341.5703017862
15	259	28	2346.3703963129
15	368	29	2349.0946063559
15	370	30	2347.2627969402
15	372	31	2344.8663607672
15	374	32	2341.7085023138
15	376	33	2337.3557620462
15	378	34	2331.7789837841
15	380	35	2325.2332097119
15	382	36	2317.7591830854
15	384	37	2309.2404618522
15	386	38	2299.5707945263
15	495	39	2289.0123969557
15	497	40	2277.3501264197
15	499	41	2264.6403126198
15	501	42	2251.2369101996
15	503	43	2236.6659550917
15	505	44	2220.9938580973
15	507	45	2205.1430167947
15	509	46	2189.7017438424
15	511	47	2174.1266041928
15	513	48	2158.1618704733
15	613	49	2142.2986124213
15	615	50	2126.6949998928
15	617	51	2110.8075452918
15	619	52	2093.0319737629
15	621	53	2074.3508242099
15	623	54	2053.1061875469
15	625	55	2032.9934693258
15	627	56	2017.7388243103
15	629	57	2005.0280371559
15	631	58	1995.0011493028
15	730	59	1987.8455785753
16	241	19	3037.421571845
16	243	20	3053.1279393869
16	245	21	3068.2743497778
16	247	22	3080.9233271457
16	249	23	3090.3884596661
16	251	24	3097.0831637776
16	253	25	3102.0367904353
16	255	26	3104.620817982
16	257	27	3104.8325307385
16	259	28	3104.9672319925
16	368	29	3105.0430504809
16	370	30	3105.0430504809
16	372	31	3105.0430504809
16	374	32	3105.0430504809
16	376	33	3105.0430504809
16	378	34	3105.0430504809
16	380	35	3105.0430504809
16	382	36	3105.0430504809
16	384	37	3105.0430504809
16	386	38	3105.0430504809
16	495	39	3105.0430504809
16	497	40	3105.0430504809
16	499	41	3105.0430504809
16	501	42	3105.0430504809
16	503	43	3105.0430504809
16	505	44	3105.0430504809
16	507	45	3105.0430504809
16	509	46	3105.0430504809
16	511	47	3105.0430504809
16	513	48	3105.0430504809
16	613	49	3105.0430504809
16	615	50	3105.0430504809
16	617	51	3105.0430504809
16	619	52	3105.0430504809
16	621	53	3105.0430504809
16	623	54	3105.0430504809
16	625	55	3105.0430504809
16	627	56	3105.0430504809
16	629	57	3105.0430504809
16	631	58	3105.0430504809
16	730	59	3105.0430504809
17	241	19	2085.7268937205
17	243	20	2066.2330406079
17	245	21	2047.4284736144
17	247	22	2031.6329854554
17	249	23	2019.4341507926
17	251	24	2010.5272825136
17	253	25	2004.466217498
17	255	26	2001.2989186414
17	257	27	2001.0394177037
17	259	28	2000.8743114422
17	368	29	2000.7813790693
17	370	30	2000.7813790693
17	372	31	2000.7813790693
17	374	32	2000.7813790693
17	376	33	2000.7813790693
17	378	34	2000.7813790693
17	380	35	2000.7813790693
17	382	36	2000.7813790693
17	384	37	2000.7813790693
17	386	38	2000.7813790693
17	495	39	2000.7813790693
17	497	40	2000.7813790693
17	499	41	2000.7813790693
17	501	42	2000.7813790693
17	503	43	2000.7813790693
17	505	44	2000.7813790693
17	507	45	2000.7813790693
17	509	46	2000.7813790693
17	511	47	2000.7813790693
17	513	48	2000.7813790693
17	613	49	2000.7813790693
17	615	50	2000.7813790693
17	617	51	2000.7813790693
17	619	52	2000.7813790693
17	621	53	2000.7813790693
17	623	54	2000.7813790693
17	625	55	2000.7813790693
17	627	56	2000.7813790693
17	629	57	2000.7813790693
17	631	58	2000.7813790693
17	730	59	2000.7813790693
20	241	19	27.499031283749
20	243	20	22.999031283749
20	245	21	18.499031283749
20	247	22	13.999031283749
20	249	23	9.4990312837485
20	251	24	11.104847248336
20	253	25	9.8438414656141
20	255	26	9.9439095943983
20	257	27	10.257862116781
20	259	28	11.64553754722
20	368	29	14.078975765116
20	370	30	15.380223095103
20	372	31	17.673307425959
20	374	32	19.757752481976
20	376	33	21.853468519694
20	378	34	23.582798667217
20	380	35	24.966597872821
20	382	36	26.466393679136
20	384	37	28.659138112247
20	386	38	30.328901388482
20	495	39	30.434325238117
20	497	40	30.712363613941
20	499	41	30.316075920625
20	501	42	29.822663370878
20	503	43	29.037600864478
20	505	44	24.537600864478
20	507	45	20.037600864478
20	509	46	15.537600864478
20	511	47	11.037600864478
20	513	48	6.7502328193126
20	613	49	8.2282762728011
20	615	50	10.43702248175
20	617	51	10.26806669082
20	619	52	12.617433152026
20	621	53	14.234212061045
20	623	54	16.077748717441
20	625	55	18.206147055698
20	627	56	17.802611534178
20	629	57	17.49308866325
20	631	58	17.719229774919
20	730	59	18.521699581688
21	241	19	28.423835531355
21	243	20	28.836920578115
21	245	21	28.238699832245
21	247	22	28.076126232918
21	249	23	28.429116588051
21	251	24	28.679620985163
21	253	25	28.802810401109
21	255	26	28.423996502546
21	257	27	27.868326807453
21	259	28	29.116916073591
21	368	29	28.927703033726
21	370	30	28.249453778973
21	372	31	28.839904392918
21	374	32	28.851520454756
21	376	33	28.675623394794
21	378	34	28.146407398943
21	380	35	27.855890090985
21	382	36	28.979196485749
21	384	37	28.899646683492
21	386	38	28.734432426573
21	495	39	28.085235527589
21	497	40	28.507174503792
21	499	41	27.928588858934
21	501	42	28.249734262086
21	503	43	28.429944829352
21	505	44	28.213055282168
21	507	45	28.971642992378
21	509	46	28.270451919933
21	511	47	28.77994981421
21	513	48	28.887941913458
21	613	49	28.19054759423
21	615	50	28.705870108551
21	617	51	28.903029122192
21	619	52	27.970753312495
21	621	53	27.846897100134
21	623	54	29.016198086355
21	625	55	29.089706209593
21	627	56	28.154018638179
21	629	57	29.109517984221
21	631	58	29.043496937619
21	730	59	27.934725810669
22	241	19	20.679765262251
22	243	20	19.480687092553
22	245	21	20.034524059369
22	247	22	15.534524059369
22	249	23	11.034524059369
22	251	24	7.3541028430018
22	253	25	3.401435
22	255	26	2.8540856200898
22	257	27	2.6797675833268
22	259	28	5.1809535848372
22	368	29	7.1238641959079
22	370	30	9.1614510607137
22	372	31	10.619269141804
22	374	32	12.982876853382
22	376	33	14.474973865475
22	378	34	16.099796686384
22	380	35	17.833864517643
22	382	36	19.693980989668
22	384	37	20.670020303601
22	386	38	20.286469082703
22	495	39	19.749790991895
22	497	40	20.331621633685
22	499	41	20.319777136046
22	501	42	20.335851164284
22	503	43	20.44859333444
22	505	44	19.985248612548
22	507	45	20.248707792634
22	509	46	18.077003690731
22	511	47	14.845821506573
22	513	48	10.345821506573
22	613	49	5.8458215065731
22	615	50	7.7452068993786
22	617	51	8.4974019158628
22	619	52	7.4123879074349
22	621	53	7.639932253421
22	623	54	9.7252593853741
22	625	55	11.46391318452
22	627	56	13.922864370909
22	629	57	16.148413007124
22	631	58	18.53489154072
22	730	59	20.618021464348
24	241	19	16.087694204308
24	243	20	16.98764398935
24	245	21	15.897896154236
24	247	22	16.128916021751
24	249	23	16.493479275366
24	251	24	16.28755660624
24	253	25	16.233277552936
24	255	26	16.413474271388
24	257	27	16.471514803299
24	259	28	15.9420304058
24	368	29	16.183899693435
24	370	30	16.491697173368
24	372	31	16.631039476546
24	374	32	16.826177705161
24	376	33	16.163596207544
24	378	34	16.577104563254
24	380	35	16.431135867175
24	382	36	17.145673262572
24	384	37	16.367173848895
24	386	38	16.374375560798
24	495	39	16.368085801753
24	497	40	15.943227502133
24	499	41	16.283733612799
24	501	42	16.702739727322
24	503	43	16.601958461536
24	505	44	16.263179445953
24	507	45	17.091806893551
24	509	46	16.303303275339
24	511	47	16.29827076419
24	513	48	16.896602669835
24	613	49	17.002495812147
24	615	50	16.760043145448
24	617	51	16.697275994567
24	619	52	16.428844191262
24	621	53	16.599918032589
24	623	54	15.8852140186
24	625	55	17.03744175114
24	627	56	16.898560213845
24	629	57	16.960397635482
24	631	58	16.32105918132
24	730	59	16.84082091829
25	241	19	13.780875657751
25	243	20	12.899153957116
25	245	21	12.895201179405
25	247	22	13.042363209507
25	249	23	13.414297354287
25	251	24	12.874742716594
25	253	25	13.799317784022
25	255	26	12.907056315635
25	257	27	13.563236968285
25	259	28	12.814652837879
25	368	29	13.028961444084
25	370	30	13.666301362911
25	372	31	12.87237884034
25	374	32	13.780589493942
25	376	33	13.286057132619
25	378	34	13.65451024498
25	380	35	13.616341563287
25	382	36	13.639813285294
25	384	37	13.212346518688
25	386	38	13.725874344372
25	495	39	12.909256219022
25	497	40	13.166238774309
25	499	41	13.963639764694
25	501	42	13.717751525362
25	503	43	13.786224044064
25	505	44	13.471488585343
25	507	45	12.994366364596
25	509	46	13.004958852819
25	511	47	13.909241265753
25	513	48	13.319278508142
25	613	49	13.465787377554
25	615	50	13.898227441144
25	617	51	12.96010901739
25	619	52	13.418584080782
25	621	53	13.67714405567
25	623	54	13.858640588793
25	625	55	13.691749048206
25	627	56	13.230935898396
25	629	57	13.184410460988
25	631	58	13.389143070179
25	730	59	13.795977095767
26	241	19	11.520178100552
26	243	20	11.978900028408
26	245	21	11.691771208813
26	247	22	11.374170288855
26	249	23	12.027065306778
26	251	24	12.04897802937
26	253	25	12.136492845175
26	255	26	11.756083793907
26	257	27	11.980710591694
26	259	28	12.145744115455
26	368	29	11.722839160162
26	370	30	11.443498510696
26	372	31	11.684167288375
26	374	32	12.248200896654
26	376	33	13.110909454644
26	378	34	13.007249833157
26	380	35	13.199207827126
26	382	36	12.362118701057
26	384	37	13.350623464797
26	386	38	13.884066326184
26	495	39	14.649301146822
26	497	40	14.575455044922
26	499	41	13.696181658832
26	501	42	13.804737603096
26	503	43	14.34778025573
26	505	44	14.532716992185
26	507	45	14.135821238988
26	509	46	13.959199390667
26	511	47	14.326190998907
26	513	48	14.546973236105
26	613	49	14.036957610691
26	615	50	14.49840024406
26	617	51	13.910321125122
26	619	52	13.535631528696
26	621	53	13.711468897773
26	623	54	14.588672015829
26	625	55	13.829162863143
26	627	56	14.071189063032
26	629	57	13.446056477785
26	631	58	14.04011593495
26	730	59	13.940216085561
27	241	19	31.155037159662
27	243	20	31.01420863583
27	245	21	31.793541643096
27	247	22	31.171722694396
27	249	23	31.882772188055
27	251	24	27.799503492
27	253	25	23.299503492
27	255	26	18.799503492
27	257	27	14.299503492
27	259	28	9.7995034920004
27	368	29	5.5601468409597
27	370	30	3.885980655443
27	372	31	4.097629230124
27	374	32	6.4641792663644
27	376	33	8.8786487982879
27	378	34	11.370088271451
27	380	35	13.381392463533
27	382	36	15.269986802274
27	384	37	17.411114928642
27	386	38	19.607842912319
27	495	39	21.353223605272
27	497	40	23.585687963924
27	499	41	25.70423155921
27	501	42	27.106939953313
27	503	43	29.110119085041
27	505	44	31.146774272857
27	507	45	31.563739602457
27	509	46	30.826033911904
27	511	47	31.076483001237
27	513	48	31.873536889584
27	613	49	31.661827370015
27	615	50	31.144669458739
27	617	51	31.717683195791
27	619	52	31.55903774754
27	621	53	31.452982311326
27	623	54	30.975834356098
27	625	55	27.365808510305
27	627	56	22.865808510305
27	629	57	19.44625405028
27	631	58	15.312724673121
27	730	59	10.812724673121
28	241	19	26.236928081143
28	243	20	25.018910299385
28	245	21	24.131383201568
28	247	22	20.372911696145
28	249	23	15.872911696145
28	251	24	11.388049316205
28	253	25	7.5590824996207
28	255	26	4.0828991683941
28	257	27	0.3345172687507
28	259	28	0.21283505225951
28	368	29	0.11979719166246
28	370	30	0
28	372	31	0
28	374	32	0
28	376	33	0
28	378	34	0
28	380	35	0
28	382	36	0
28	384	37	0
28	386	38	0
28	495	39	0
28	497	40	0
28	499	41	0
28	501	42	0
28	503	43	0
28	505	44	0
28	507	45	0
28	509	46	0
28	511	47	0
28	513	48	0
28	613	49	0
28	615	50	0
28	617	51	0
28	619	52	0
28	621	53	0
28	623	54	0
28	625	55	0
28	627	56	0
28	629	57	0
28	631	58	0
28	730	59	0
30	241	19	-2.2372245301628
30	243	20	-4.5
30	245	21	-4.5
30	247	22	-4.5
30	249	23	-4.5
30	251	24	1.605815964588
30	253	25	-1.2610057827224
30	255	26	0.10006812878419
30	257	27	0.31395252238232
30	259	28	1.3876754304394
30	368	29	2.433438217896
30	370	30	1.3012473299867
30	372	31	2.2930843308568
30	374	32	2.0844450560166
30	376	33	2.0957160377177
30	378	34	1.7293301475234
30	380	35	1.383799205604
30	382	36	1.4997958063148
30	384	37	2.1927444331115
30	386	38	1.6697632762345
30	495	39	0.10542384963482
30	497	40	0.27803837582469
30	499	41	-0.39628769331611
30	501	42	-0.49341254974716
30	503	43	-0.78506250640043
30	505	44	-4.5
30	507	45	-4.5
30	509	46	-4.5
30	511	47	-4.5
30	513	48	-4.2873680451652
30	613	49	1.4780434534885
30	615	50	2.208746208949
30	617	51	-0.16895579093055
30	619	52	2.3493664612062
30	621	53	1.6167789090192
30	623	54	1.8435366563965
30	625	55	2.1283983382563
30	627	56	-0.40353552151937
30	629	57	-0.30952287092805
30	631	58	0.22614111166913
30	730	59	0.80246980676893
31	241	19	0.973
31	243	20	0.973
31	245	21	0.973
31	247	22	0.973
31	249	23	0.973
31	251	24	6.0697978177109
31	253	25	0.973
31	255	26	1.9203388016108
31	257	27	2.4806863988942
31	259	28	5.7122939395806
31	368	29	10.303708114796
31	370	30	7.0112831281838
31	372	31	12.239367321852
31	374	32	12.700946534601
31	376	33	14.165815517527
31	378	34	13.287801867517
31	380	35	12.078281563215
31	382	36	13.665641886997
31	384	37	19.811992023188
31	386	38	17.354976864933
31	495	39	5.955537628406
31	497	40	7.3256774997426
31	499	41	2.2510004288368
31	501	42	1.4526189539985
31	503	43	-0.7213384999469
31	505	44	0.973
31	507	45	0.973
31	509	46	0.973
31	511	47	0.973
31	513	48	0.973
31	613	49	4.4893772644518
31	615	50	7.2742182040586
31	617	51	1.2872417682691
31	619	52	9.0481823589895
31	621	53	7.6093534679906
31	623	54	9.4127378809804
31	625	55	11.884475262988
31	627	56	0.973
31	629	57	1.1434761453079
31	631	58	3.4444076443501
31	730	59	6.1724640635954
32	241	19	0.00024345174897178
32	243	20	0.41308504675981
32	245	21	-0.59822074586991
32	247	22	-0.16257359932642
32	249	23	0.35299035513308
32	251	24	0.25050439711195
32	253	25	0.12318941594567
32	255	26	-0.37881389856339
32	257	27	-0.55566969509236
32	259	28	1.2485892661382
32	368	29	-0.18921303986572
32	370	30	-0.67824925475288
32	372	31	0.59045061394572
32	374	32	0.011616061837412
32	376	33	-0.17589705996215
32	378	34	-0.52921599585097
32	380	35	-0.29051730795763
32	382	36	1.1233063947642
32	384	37	-0.079549802257681
32	386	38	-0.16521425691899
32	495	39	-0.64919689898379
32	497	40	0.42193897620309
32	499	41	-0.57858564485796
32	501	42	0.32114540315233
32	503	43	0.18021056726575
32	505	44	-0.21688954718411
32	507	45	0.75858771021012
32	509	46	-0.70119107244536
32	511	47	0.50949789427686
32	513	48	0.1079920992488
32	613	49	-0.6973943192279
32	615	50	0.51532251432073
32	617	51	0.19715901364107
32	619	52	-0.93227580969688
32	621	53	-0.12385621236172
32	623	54	1.1693009862211
32	625	55	0.073508123238572
32	627	56	-0.93568757141475
32	629	57	0.95549934604205
32	631	58	-0.066021046601236
32	730	59	-1.1087711269502
33	241	19	4.6042245796025
33	243	20	7.5871419267059
33	245	21	0.48123574814868
33	247	22	3.4088495584548
33	249	23	7.0224784751463
33	251	24	6.40411741877
33	253	25	5.5619450548298
33	255	26	2.0076561196941
33	257	27	0.72176837410777
33	259	28	13.556559994905
33	368	29	3.4225793102535
33	370	30	-0.062261973056251
33	372	31	8.8210352762071
33	374	32	4.8011653131293
33	376	33	3.4559861569557
33	378	34	0.93783868133813
33	380	35	2.5001977039435
33	382	36	12.601296236703
33	384	37	4.1797891218021
33	386	38	3.5437378333639
33	495	39	0.11719260603645
33	497	40	7.5241091702507
33	499	41	0.57536155027111
33	501	42	6.7418324191636
33	503	43	5.8389535276864
33	505	44	3.0708365603736
33	507	45	10.050603089584
33	509	46	-0.2163405652517
33	511	47	8.2343349899649
33	513	48	5.4824063668997
33	613	49	-0.19854575922313
33	615	50	8.244999467308
33	617	51	6.1081216750295
33	619	52	0.973
33	621	53	3.6169399012966
33	623	54	12.943356566455
33	625	55	5.3026261315002
33	627	56	0.973
33	629	57	11.496097957101
33	631	58	4.3121267468965
33	730	59	0.973
34	241	19	0.56581345985178
34	243	20	-1.1990781696979
34	245	21	0.5538369668157
34	247	22	-4.5
34	249	23	-4.5
34	251	24	-3.6804212163668
34	253	25	-3.9526678430018
34	255	26	-0.54734937991016
34	257	27	-0.174318036763
34	259	28	2.5011860015104
34	368	29	1.9429106110707
34	370	30	2.0375868648058
34	372	31	1.4578180810902
34	374	32	2.3636077115778
34	376	33	1.4920970120933
34	378	34	1.6248228209093
34	380	35	1.7340678312583
34	382	36	1.8601164720254
34	384	37	0.97603931393343
34	386	38	-0.38355122089851
34	495	39	-0.53667809080798
34	497	40	0.58183064179029
34	499	41	-0.011844497639686
34	501	42	0.016074028238652
34	503	43	0.11274217015598
34	505	44	-0.46334472189191
34	507	45	0.26345918008592
34	509	46	-2.1717041019034
34	511	47	-3.2311821841577
34	513	48	-4.5
34	613	49	-4.5
34	615	50	1.8993853928056
34	617	51	0.75219501648419
34	619	52	-1.085014008428
34	621	53	0.2275443459861
34	623	54	2.0853271319531
34	625	55	1.7386537991464
34	627	56	2.4589511863887
34	629	57	2.2255486362148
34	631	58	2.3864785335958
34	730	59	2.0831299236277
35	241	19	5.744482645037
35	243	20	0.973
35	245	21	5.4934325124222
35	247	22	0.973
35	249	23	0.973
35	251	24	0.973
35	253	25	0.973
35	255	26	0.973
35	257	27	0.973
35	259	28	4.4957815910838
35	368	29	4.8227416941923
35	370	30	6.1217900864008
35	372	31	5.4638113598181
35	374	32	9.3338785650094
35	376	33	7.2935793218049
35	378	34	8.5765580250814
35	380	35	9.9472353478987
35	382	36	11.59423819096
35	384	37	7.7850590970502
35	386	38	0.98466687745155
35	495	39	0.973
35	497	40	5.7181272609463
35	499	41	2.8072723896338
35	501	42	2.9466697131768
35	503	43	3.4419295070095
35	505	44	0.5798110489714
35	507	45	4.139408007378
35	509	46	0.973
35	511	47	0.973
35	513	48	0.973
35	613	49	0.973
35	615	50	5.0719329883234
35	617	51	3.1169953554204
35	619	52	0.973
35	621	53	1.9387050561396
35	623	54	6.5516822873567
35	625	55	6.6057554846806
35	627	56	10.281749924241
35	629	57	10.939328691161
35	631	58	13.252529411888
35	730	59	13.265248020663
38	241	19	-0.23978235616814
38	243	20	0.89994978504255
38	245	21	-1.0897478351137
38	247	22	0.23101986751426
38	249	23	0.36456325361505
38	251	24	-0.20592266912572
38	253	25	-0.054279053304345
38	255	26	0.1801967184525
38	257	27	0.058040531910954
38	259	28	-0.52948439749889
38	368	29	0.2418692876352
38	370	30	0.3077974799322
38	372	31	0.13934230317827
38	374	32	0.19513822861482
38	376	33	-0.66258149761707
38	378	34	0.41350835571065
38	380	35	-0.14596869607922
38	382	36	0.7145373953972
38	384	37	-0.77849941367749
38	386	38	0.0072017119033276
38	495	39	-0.0062897590454654
38	497	40	-0.42485829961952
[...]
86	503	43	-4.1543572911294
86	505	44	1.6190552841639
86	507	45	-0.16130308270281
86	509	46	-0.53590163277811
86	511	47	-4.1108774719061
86	513	48	0.4341098318611
86	613	49	0.38838950602803
86	615	50	1.9570178572088
86	617	51	2.4320730425417
86	619	52	2.3034919616068
86	621	53	2.2075063763419
86	623	54	2.3323004034348
86	625	55	1.6930251182523
86	627	56	2.5339947584318
86	629	57	0.30234779238961
86	631	58	-0.54666106991936
86	730	59	0.61182788864244
87	241	19	5.754288165053
87	243	20	1.8286004009153
87	245	21	0.973
87	247	22	6.4953858854753
87	249	23	3.6140566924371
87	251	24	1.3735754787317
87	253	25	5.1039590899733
87	255	26	0.9458226435961
87	257	27	0.973
87	259	28	6.819405386601
87	368	29	2.5817360659233
87	370	30	4.3953574431675
87	372	31	0.973
87	374	32	4.8970446246443
87	376	33	0.973
87	378	34	2.8442503065123
87	380	35	6.1269773328683
87	382	36	0.973
87	384	37	0.973
87	386	38	0.973
87	495	39	3.5902799616848
87	497	40	4.2327550631575
87	499	41	4.9933068070984
87	501	42	5.3868139847199
87	503	43	0.973
87	505	44	4.6603815921075
87	507	45	1.2276582364182
87	509	46	0.973
87	511	47	0.973
87	513	48	1.6671795140832
87	613	49	1.6839856862118
87	615	50	4.2290267293554
87	617	51	6.4894801976706
87	619	52	7.6777051811047
87	621	53	8.7966001297082
87	623	54	10.736450084929
87	625	55	9.2828687662094
87	627	56	14.616837830885
87	629	57	4.2173047651671
87	631	58	0.973
87	730	59	5.711421740524
88	241	19	1.9078866133699
88	243	20	1.4792162815575
88	245	21	0.6435656857653
88	247	22	-0.96810660315585
88	249	23	-0.65024299650998
88	251	24	-0.23752155823234
88	253	25	-0.8362272366848
88	255	26	0.29709645511938
88	257	27	-0.96188552137868
88	259	28	0.31063855412387
88	368	29	-4.4946838042271
88	370	30	-4.5
88	372	31	0.81014321730538
88	374	32	-4.5
88	376	33	-4.3574994993862
88	378	34	2.2088646745076
88	380	35	1.4291921088938
88	382	36	1.407928625471
88	384	37	2.1050269616535
88	386	38	2.3162660283735
88	495	39	1.7380377209745
88	497	40	2.0678937249817
88	499	41	1.3519775079098
88	501	42	1.8044763513375
88	503	43	2.5673678582767
88	505	44	2.2286264948547
88	507	45	2.5107559222262
88	509	46	-0.68954947379915
88	511	47	-0.40398477709386
88	513	48	0.20059198776726
88	613	49	0.68471797052771
88	615	50	-0.64342176073696
88	617	51	0.20772913382389
88	619	52	0.51146935247816
88	621	53	-0.28017785130069
88	623	54	-0.39144757122267
88	625	55	0.37417869132478
88	627	56	0.12136962031946
88	629	57	0.023870985768735
88	631	58	-0.39525312576443
88	730	59	-3.3623725832891
89	241	19	14.123609366613
89	243	20	12.551183625851
89	245	21	7.8018372178501
89	247	22	0.973
89	249	23	0.973
89	251	24	2.1086875399462
89	253	25	0.973
89	255	26	5.0008387535678
89	257	27	0.973
89	259	28	4.9027384767134
89	368	29	0.973
89	370	30	0.973
89	372	31	4.8331041867292
89	374	32	0.973
89	376	33	0.973
89	378	34	5.5361474738299
89	380	35	4.7048998412175
89	382	36	5.2411921525001
89	384	37	8.2331702077557
89	386	38	10.394096272179
89	495	39	9.2602237142917
89	497	40	11.883741278088
89	499	41	9.3165071267953
89	501	42	12.58423922132
89	503	43	18.678991489595
89	505	44	18.396727582992
89	507	45	22.3829731102
89	509	46	-0.12420639116305
89	511	47	1.7607016725534
89	513	48	5.9020353505952
89	613	49	9.4915591147561
89	615	50	0.17274023958701
89	617	51	6.0303315363954
89	619	52	8.3165186488855
89	621	53	2.7341510213922
89	623	54	1.895421987635
89	625	55	7.2490891933245
89	627	56	5.5405000121822
89	629	57	4.8711603306599
89	631	58	1.8912875246527
89	730	59	0.973
87	732	60	1.2482804381639
87	734	61	0.973
87	738	62	2.729606251751
86	732	60	-0.31674399187323
86	734	61	-0.45226633385755
86	738	62	0.01266180856619
80	732	60	19.515006137058
80	734	61	19.0627398032
80	738	62	19.075401611766
75	732	60	1868.6456176212
75	734	61	1855.7697464489
75	738	62	1843.1028085401
74	732	60	3235.772007327
74	734	61	3249.843055832
74	738	62	3264.1131982822
0	732	60	673.56895472269
0	734	61	675.54167619562
0	738	62	676.85971018533
0	740	63	677.93211663264
0	742	64	678.68712316957
0	746	65	679.17251065241
0	748	66	678.58705731552
0	750	67	678.08026769394
0	752	68	678.24517404604
1	732	60	1344.1631177298
1	734	61	1326.4836736599
1	738	62	1308.9054865876
1	740	63	1291.155310908
1	742	64	1272.9390923553
1	746	65	1254.5121260861
1	748	66	1236.9053371544
1	750	67	1218.7142057007
1	752	68	1201.144183458
2	732	60	1663.1845336534
2	734	61	1655.9573598724
2	738	62	1649.5405445412
2	740	63	1644.7865064458
2	742	64	1641.785638152
2	746	65	1642.7692861315
2	748	66	1651.0658303613
2	750	67	1663.4808067543
2	752	68	1677.5904437325
3	732	60	529.94108940755
3	734	61	502.92444066279
3	738	62	475.56205793372
3	740	63	446.93565987797
3	742	64	418.53806473822
3	746	65	390.38005635486
3	748	66	364.08802531344
3	750	67	338.74858697353
3	752	68	313.94400777048
4	732	60	2755.7723439477
4	734	61	2731.636507021
4	738	62	2706.860142937
4	740	63	2682.2536741945
4	742	64	2657.6297631538
4	746	65	2632.873365126
4	748	66	2608.2151904011
4	750	67	2582.9058207925
4	752	68	2558.5488918632
5	732	60	1897.7666781873
5	734	61	1897.4469167809
5	738	62	1897.1186694096
5	740	63	1896.792672881
5	742	64	1896.4664452698
5	746	65	1896.3340028118
5	748	66	1896.2832135745
5	750	67	1896.0780791757
5	752	68	1893.27
8	732	60	967.07767551453
8	734	61	955.06795310848
8	738	62	943.30895897651
8	740	63	931.50617370387
8	742	64	920.26597400244
8	746	65	909.1717941071
8	748	66	898.25238257832
8	750	67	887.30007534264
8	752	68	876.4392375207
9	732	60	493.79320267147
9	734	61	505.63027106938
9	738	62	517.87968076739
9	740	63	530.1747079406
9	742	64	542.02242446039
9	746	65	554.91017475708
9	748	66	567.84934406215
9	750	67	580.46366314121
9	752	68	592.37376834594
10	732	60	2624.3060218883
10	734	61	2630.8447242724
10	738	62	2637.0751512279
10	740	63	2643.5664705308
10	742	64	2650.0416653905
10	746	65	2656.447990998
10	748	66	2662.7960366062
10	750	67	2669.1905553994
10	752	68	2675.5804680044
11	732	60	2768.5234413578
11	734	61	2756.6643829858
11	738	62	2745.3644349828
11	740	63	2733.5913139564
11	742	64	2721.8474373734
11	746	65	2710.2284669927
11	748	66	2698.7151973875
11	750	67	2687.1176406898
11	752	68	2675.5284381045
12	732	60	3041.4116560476
12	734	61	3032.5545980962
12	738	62	3023.9098605978
12	740	63	3015.8705329574
12	742	64	3007.5077617865
12	746	65	2999.3610022987
12	748	66	2991.5060867502
12	750	67	2984.1258466761
12	752	68	2976.5932303796
13	732	60	2010.0814390815
13	734	61	2020.4896173191
13	738	62	2031.7293877771
13	740	63	2042.9503092013
13	742	64	2054.6226781349
13	746	65	2066.8422716461
13	748	66	2078.9359323627
13	750	67	2090.2987686547
13	752	68	2102.3320519743
14	732	60	3131.4649570536
14	734	61	3130.0709466853
14	738	62	3130.0709466853
14	740	63	3130.0709466853
14	742	64	3130.0709466853
14	746	65	3130.0709466853
14	748	66	3130.0709466853
14	750	67	3130.0709466853
14	752	68	3130.0709466853
15	732	60	1983.6398021076
15	734	61	1982.4148204606
15	738	62	1982.4148204606
15	740	63	1982.4148204606
15	742	64	1982.4148204606
15	746	65	1982.4148204606
15	748	66	1982.4148204606
15	750	67	1982.4148204606
15	752	68	1982.4148204606
16	732	60	3105.0430504809
16	734	61	3105.0430504809
16	738	62	3105.0430504809
16	740	63	3105.0430504809
16	742	64	3105.0430504809
16	746	65	3105.0430504809
16	748	66	3105.0430504809
16	750	67	3105.0430504809
16	752	68	3105.0430504809
17	732	60	2000.7813790693
17	734	61	2000.7813790693
17	738	62	2000.7813790693
17	740	63	2000.7813790693
17	742	64	2000.7813790693
17	746	65	2000.7813790693
17	748	66	2000.7813790693
17	750	67	2000.7813790693
17	752	68	2000.7813790693
20	732	60	18.474252175141
20	734	61	17.796664116017
20	738	62	17.639602503574
20	740	63	17.790038633879
20	742	64	18.242148200769
20	746	65	18.441129218691
20	748	66	17.629269037253
20	750	67	18.211124183095
20	752	68	17.578203686208
21	732	60	28.173626540078
21	734	61	27.97603834247
21	738	62	28.159287237784
21	740	63	29.018686618877
21	742	64	28.594261441997
21	746	65	28.218772036198
21	748	66	27.835754105391
21	750	67	28.227577147622
21	752	68	28.536773514783
22	732	60	22.202320795599
22	734	61	24.138029913907
22	738	62	24.778615269716
22	740	63	24.608704491401
22	742	64	24.626148374424
22	746	65	24.757150782062
22	748	66	24.658303561131
22	750	67	25.264977990486
22	752	68	24.816371688758
24	732	60	16.563895995344
24	734	61	16.852346735529
24	738	62	16.963439537573
24	740	63	17.026612319087
24	742	64	16.316871530411
24	746	65	16.99046216564
24	748	66	16.914542936289
24	750	67	16.690757284558
24	752	68	16.102808799816
25	732	60	13.899163326291
25	734	61	13.528069923791
25	738	62	12.89027188541
25	740	63	13.430037990372
25	742	64	13.396677763803
25	746	65	13.254192603003
25	748	66	13.133615788348
25	750	67	13.22976521663
25	752	68	13.220235369211
26	732	60	13.625301145566
26	734	61	13.663117921994
26	738	62	14.187923969179
26	740	63	13.800038300375
26	742	64	14.355250540599
26	746	65	14.685481909373
26	748	66	14.416951363431
26	750	67	13.545729619068
26	752	68	14.19903452875
27	732	60	6.3127246731214
27	734	61	1.8117246731214
27	738	62	0
27	740	63	0
27	742	64	0
27	746	65	0
27	748	66	0
27	750	67	0
27	752	68	0
28	732	60	0
28	734	61	0
28	738	62	0
28	740	63	0
28	742	64	0
28	746	65	0
28	748	66	0
28	750	67	0
28	752	68	0
30	732	60	-0.047447406547146
30	734	61	-0.67758805912453
30	738	62	-0.15706161244307
30	740	63	0.15043613030575
30	742	64	0.4521095668897
30	746	65	0.19898101792205
30	748	66	-0.8118601814378
30	750	67	0.58185514584184
30	752	68	-0.63292049688753
31	732	60	2.3724177266028
31	734	61	0.973
31	738	62	1.8002791883325
31	740	63	3.1332910003632
31	742	64	4.5384270910814
31	746	65	3.4632761092621
31	748	66	0.973
31	750	67	5.1001317532475
31	752	68	0.973
32	732	60	0.23890072940849
32	734	61	-0.19758819760755
32	738	62	0.18324889531359
32	740	63	0.85939938109368
32	742	64	-0.42442517688032
32	746	65	-0.37548940579872
32	748	66	-0.38301793080755
32	750	67	0.39182304223068
32	752	68	0.30919636716135
33	732	60	6.1570547422369
33	734	61	3.1500793122248
33	738	62	5.7747097489492
33	740	63	10.777460638095
33	742	64	1.7243603213105
33	746	65	1.9934809837826
33	748	66	1.8757764311679
33	750	67	7.2149611813009
33	752	68	6.7598482293096
34	732	60	1.5842993312515
34	734	61	1.9357091183076
34	738	62	0.64058535580924
34	740	63	-0.1699107783148
34	742	64	0.017443883023223
34	746	65	0.13100240763742
34	748	66	-0.098847220931201
34	750	67	0.60667442935519
34	752	68	-0.4486063017277
35	732	60	11.669283131458
35	734	61	14.834158286568
35	738	62	7.5360819875989
35	740	63	2.6661332671705
35	742	64	3.7811216634012
35	746	65	4.4876706014019
35	748	66	3.0971418867992
35	750	67	7.5125431492058
35	752	68	1.0359883318922
38	732	60	-0.27692492294591
38	734	61	0.28845074018463
38	738	62	0.11109280204401
38	740	63	0.063172781514005
38	742	64	-0.70974078867584
38	746	65	0.6735906352289
38	748	66	-0.075919229350983
38	750	67	-0.2237856517313
38	752	68	-0.58794848474209
39	732	60	1.2234031890793
39	734	61	3.5366094683968
39	738	62	2.833420198615
39	740	63	2.6465800498083
39	742	64	0.973
39	746	65	5.1408663568472
39	748	66	2.0635273539123
39	750	67	1.4445277356898
39	752	68	0.973
40	732	60	0.10318623052444
40	734	61	-0.37109340250026
40	738	62	-0.63779803838115
40	740	63	0.53976610496175
40	742	64	-0.033360226568766
40	746	65	-0.1424851607997
40	748	66	-0.12057681465521
40	750	67	0.096149428281933
40	752	68	-0.0095298474188894
41	732	60	2.3741880640439
41	734	61	0.973
41	738	62	0.973
41	740	63	3.7286644589629
41	742	64	1.8706568401822
41	746	65	1.5093436361307
41	748	66	1.5711947045878
41	750	67	2.2686731779854
41	752	68	1.9308284270722
42	732	60	-0.31491493999492
42	734	61	0.037816776428372
42	738	62	0.52480604718439
42	740	63	-0.38788566880394
42	742	64	0.55521224022377
42	746	65	0.33023136877455
42	748	66	-0.26853054594249
42	750	67	-0.87122174436226
42	752	68	0.6533049096819
43	732	60	0.973
43	734	61	2.1292577422033
43	738	62	3.8527224331742
43	740	63	0.973
43	742	64	3.9965963130018
43	746	65	3.2797579426174
43	748	66	1.1492854547658
43	750	67	0.973
43	752	68	4.2950028674507
44	732	60	-4.5
44	734	61	-4.501
44	738	62	-1.8117246731214
44	740	63	0
44	742	64	0
44	746	65	0
44	748	66	0
44	750	67	0
44	752	68	0
45	732	60	0.973
45	734	61	0.973
45	738	62	0.973
45	740	63	0.973
45	742	64	0.973
45	746	65	0.973
45	748	66	0.973
45	750	67	0.973
45	752	68	0.973
46	732	60	0
46	734	61	0
46	738	62	0
46	740	63	0
46	742	64	0
46	746	65	0
46	748	66	0
46	750	67	0
46	752	68	0
47	732	60	0.973
47	734	61	0.973
47	738	62	0.973
47	740	63	0.973
47	742	64	0.973
47	746	65	0.973
47	748	66	0.973
47	750	67	0.973
47	752	68	0.973
50	732	60	2798.215268199
50	734	61	2773.8680446546
50	738	62	2749.1808836601
50	740	63	2723.4789219682
50	742	64	2698.4698806095
50	746	65	2672.4275784741
50	748	66	2647.4978746374
50	750	67	2622.0346082904
50	752	68	2595.9330227065
51	732	60	1898.0831397675
51	734	61	1897.9593312021
51	738	62	1897.6793518345
51	740	63	1897.3388417688
51	742	64	1897.0075117941
51	746	65	1896.6624927594
51	748	66	1896.3641253855
51	750	67	1896.311677875
51	752	68	1896.3177544663
52	732	60	2981.0138486922
52	734	61	2989.1831376263
52	738	62	2993.0262463028
52	740	63	2998.9294560008
52	742	64	3005.5716069462
52	746	65	3011.8926194833
52	748	66	3017.6891489086
52	750	67	3022.3767201162
52	752	68	3025.3616998653
53	732	60	1922.4259042649
53	734	61	1924.7559345908
53	738	62	1925.8520593373
53	740	63	1928.1491222795
53	742	64	1932.2905161179
53	746	65	1939.2330259295
53	748	66	1949.8221279972
53	750	67	1962.5810405827
53	752	68	1977.5454754835
54	732	60	3472.0323419645
54	734	61	3496.4639913853
54	738	62	3521.5060223501
54	740	63	3546.9383112788
54	742	64	3571.7381457408
54	746	65	3596.709853225
54	748	66	3621.3416575699
54	750	67	3646.0941049199
54	752	68	3670.9211312054
55	732	60	2226.4608285912
55	734	61	2240.6916101721
55	738	62	2255.1525068341
55	740	63	2269.6175313409
55	742	64	2283.7228371694
55	746	65	2297.9258985513
55	748	66	2311.9056830467
55	750	67	2325.7981301665
55	752	68	2339.7344869014
56	732	60	3107.5230426812
56	734	61	3107.5230426812
56	738	62	3107.5230426812
56	740	63	3107.5230426812
56	742	64	3107.5230426812
56	746	65	3107.5230426812
56	748	66	3107.5230426812
56	750	67	3107.5230426812
56	752	68	3107.5230426812
57	732	60	2002.8013886296
57	734	61	2002.8013886296
57	738	62	2002.8013886296
57	740	63	2002.8013886296
57	742	64	2002.8013886296
57	746	65	2002.8013886296
57	748	66	2002.8013886296
57	750	67	2002.8013886296
57	752	68	2002.8013886296
58	732	60	23.053159610232
58	734	61	24.347613899024
58	738	62	24.688972467421
58	740	63	25.704296977507
58	742	64	25.011313685461
58	746	65	26.044668344414
58	748	66	24.93172471218
58	750	67	25.463399389671
58	752	68	26.101903863376
59	732	60	11.376179203277
59	734	61	8.4975192929761
59	738	62	3.9975192929761
59	740	63	6.3470080271506
59	742	64	7.8463468967847
59	746	65	9.5639654070747
59	748	66	12.072023062655
59	750	67	13.75143089382
59	752	68	15.259497138826
60	732	60	28.335762067687
60	734	61	28.273783870566
60	738	62	28.917576208886
60	740	63	29.257879186271
60	742	64	28.530289293465
60	746	65	28.728015897179
60	748	66	28.322247313697
60	750	67	28.384329094517
60	752	68	28.470861123724
61	732	60	0
61	734	61	0
61	738	62	0
61	740	63	0
61	742	64	0
61	746	65	0
61	748	66	0
61	750	67	0
61	752	68	0
62	732	60	1.3694175090101
62	734	61	1.2944542887926
62	738	62	0.34135856839725
62	740	63	1.0153245100853
62	742	64	-0.69298329204582
62	746	65	1.0333546589534
62	748	66	-1.1129436322344
62	750	67	0.53167467749089
62	752	68	0.6385044737049
63	732	60	10.962095257475
63	734	61	11.213438422959
63	738	62	5.7223082344629
63	740	63	10.208522711284
63	742	64	0.973
63	746	65	10.484553173066
63	748	66	0.973
63	750	67	7.1262539365578
63	752	68	8.0285230310178
64	732	60	-4.2650936073546
64	734	61	-2.8786599103012
64	738	62	-4.5
64	740	63	2.3494887341745
64	742	64	1.4993388696341
64	746	65	1.71761851029
64	748	66	2.5080576555803
64	750	67	1.679407831165
64	752	68	1.5080662450055
65	732	60	0.973
65	734	61	0.973
65	738	62	0.973
65	740	63	5.0336456132523
65	742	64	4.368336689566
65	746	65	5.6111455135564
65	748	66	9.1517131523316
65	750	67	7.579309846548
65	752	68	7.7203316887169
66	732	60	-1.008786601969
66	734	61	-0.061978197121061
66	738	62	0.64379233832005
66	740	63	0.340302977385
66	742	64	-0.72758989280555
66	746	65	0.19772660371382
66	748	66	-0.40576858348213
66	750	67	0.062081780820154
66	752	68	0.086532029206865
67	732	60	0.973
67	734	61	4.1395801722172
67	738	62	9.2255325341589
67	740	63	7.2345960067376
67	742	64	-0.37114548789071
67	746	65	6.0550194307377
67	748	66	1.8053525674354
67	750	67	5.0164958779634
67	752	68	5.2091095747466
68	732	60	0
68	734	61	0
68	738	62	0
68	740	63	0
68	742	64	0
68	746	65	0
68	748	66	0
68	750	67	0
68	752	68	0
69	732	60	0.973
69	734	61	0.973
69	738	62	0.973
69	740	63	0.973
69	742	64	0.973
69	746	65	0.973
69	748	66	0.973
69	750	67	0.973
69	752	68	0.973
70	732	60	2894.4900494406
70	734	61	2887.174231787
70	738	62	2884.3679628843
70	740	63	2880.8230088456
70	742	64	2877.1544670125
70	746	65	2872.679134244
70	748	66	2867.1154061633
70	750	67	2860.61777096
70	752	68	2853.1950698097
71	732	60	1900.3426204597
71	734	61	1902.9079835831
71	738	62	1905.1330377968
71	740	63	1910.0882422406
71	742	64	1917.1674329065
71	746	65	1926.6042468448
71	748	66	1937.618842294
71	750	67	1950.4823076005
71	752	68	1965.1771397572
72	732	60	2929.9426140945
72	734	61	2946.5049290595
72	738	62	2965.134516412
72	740	63	2986.2477418744
72	742	64	3007.4396703621
72	746	65	3026.3046736978
72	748	66	3039.9636139667
72	750	67	3049.5715697632
72	752	68	3055.5325354334
73	732	60	1914.860763685
73	734	61	1915.5469938034
73	738	62	1916.3188776833
73	740	63	1915.4677102723
73	742	64	1915.6102912849
73	746	65	1923.9590276682
73	748	66	1933.187804105
73	750	67	1940.4035294682
73	752	68	1945.012547293
76	732	60	3655.5522747296
76	734	61	3670.0173628785
76	738	62	3680.5533259588
76	740	63	3687.1650439191
76	742	64	3689.9335649019
76	746	65	3688.7103720915
76	748	66	3684.5800200952
76	750	67	3678.9020577678
76	752	68	3671.7083257974
77	732	60	2331.1147776687
77	734	61	2339.2268765203
77	738	62	2345.1452673404
77	740	63	2348.861238276
77	742	64	2348.4906809327
77	746	65	2346.054285993
77	748	66	2343.7418235484
77	750	67	2340.5595333901
77	752	68	2336.5106941805
78	732	60	11.717855668613
78	734	61	7.9345812037453
78	738	62	3.5789530242659
78	740	63	6.1016423281847
78	742	64	7.9950472238573
78	746	65	10.449222831601
78	748	66	12.340120148017
78	750	67	14.411487751278
78	752	68	16.463245990696
79	732	60	14.306433050231
79	734	61	16.577420659423
79	738	62	18.646578507069
79	740	63	20.999623609464
79	742	64	21.676063129328
79	746	65	21.07784973203
79	748	66	16.57784973203
79	750	67	12.07784973203
79	752	68	7.5778497320296
81	732	60	21.0843432527
81	734	61	16.5843432527
81	738	62	12.0843432527
81	740	63	7.5843432527
81	742	64	3.0843432527
81	746	65	2.9438746914511
81	748	66	4.7336421211959
81	750	67	6.5089482919789
81	752	68	8.254884280149
82	732	60	-4.5
82	734	61	-3.783274464868
82	738	62	-4.3556281794794
82	740	63	2.5226893039187
82	742	64	1.8934048956726
82	746	65	2.4541756077437
82	748	66	1.8908973164158
82	750	67	2.071367603261
82	752	68	2.0517582394183
83	732	60	0.973
83	734	61	0.973
83	738	62	0.973
83	740	63	5.1349324460126
83	742	64	5.1911159075888
83	746	65	7.8997255375914
83	748	66	7.502349773099
83	750	67	9.2759215318665
83	752	68	10.457040275677
84	732	60	2.1585876052734
84	734	61	2.2709876091918
84	738	62	2.0691578476457
84	740	63	2.3530451023951
84	742	64	0.6764395198642
84	746	65	-0.5982133972987
84	748	66	-4.5
84	750	67	-4.5
84	752	68	-4.5
85	732	60	9.5131290965876
85	734	61	11.4034962996
85	738	62	11.906866927471
85	740	63	14.887044468226
85	742	64	6.6301627801183
85	746	65	0.973
85	748	66	0.973
85	750	67	0.973
85	752	68	0.973
88	732	60	-3.956021955359
88	734	61	-4.5
88	738	62	-4.5
88	740	63	-4.5
88	742	64	-4.5
88	746	65	-0.14046856124893
88	748	66	1.7897674297448
88	750	67	1.775306170783
88	752	68	1.7459359881701
89	732	60	0.973
89	734	61	0.973
89	738	62	0.973
89	740	63	0.973
89	742	64	0.973
89	746	65	0.973
89	748	66	3.3899299381516
89	750	67	4.2343117679907
89	752	68	5.0335923768904

