version 3
run Default-0-20230412-22:52:43-21752
attr configname Default
attr datetime 20230412-22:52:43
attr datetimef 20230412-225243
attr experiment Default
attr inifile omnetpp.ini
attr iterationvars ""
attr iterationvarsd ""
attr iterationvarsf ""
attr measurement ""
attr network RSUExampleScenario
attr processid 21752
attr repetition 0
attr replication #0
attr resultdir results
attr runnumber 0
attr seedset 0
config image-path ../../../../../inet4.4/images:../../../../../veins-veins-5.2/images
config cmdenv-express-mode true
config cmdenv-autoflush true
config cmdenv-status-frequency 1s
config **.cmdenv-log-level info
config image-path ../../images
config network RSUExampleScenario
config debug-on-errors true
config print-undisposed true
config sim-time-limit 200s
config **.scalar-recording true
config **.vector-recording true
config *.playgroundSizeX 2500m
config *.playgroundSizeY 2500m
config *.playgroundSizeZ 50m
config *.annotations.draw true
config *.obstacles.obstacles "xmldoc(\"config.xml\", \"//AnalogueModel[@type='SimpleObstacleShadowing']/obstacles\")"
config *.manager.updateInterval 1s
config *.manager.host "\"localhost\""
config *.manager.port 9999
config *.manager.autoShutdown true
config *.manager.launchConfig "xmldoc(\"erlangen.launchd.xml\")"
config *.rsu[0].mobility.x 1000
config *.rsu[0].mobility.y 1000
config *.rsu[0].mobility.z 3
config *.rsu[*].applType "\"test.myveins.TraCIDemoRSU11p\""
config *.rsu[*].appl.headerLength "80 bit"
config *.rsu[*].appl.sendBeacons true
config *.rsu[*].appl.dataOnSch false
config *.rsu[*].appl.beaconInterval 5s
config *.rsu[*].appl.beaconUserPriority 7
config *.rsu[*].appl.dataUserPriority 5
config *.rsu[*].nic.phy80211p.antennaOffsetZ "0 m"
config *.connectionManager.sendDirect true
config *.connectionManager.maxInterfDist 2600m
config *.connectionManager.drawMaxIntfDist false
config *.**.nic.mac1609_4.useServiceChannel false
config *.**.nic.mac1609_4.txPower 20mW
config *.**.nic.mac1609_4.bitrate 6Mbps
config *.**.nic.phy80211p.minPowerLevel -110dBm
config *.**.nic.phy80211p.useNoiseFloor true
config *.**.nic.phy80211p.noiseFloor -98dBm
config *.**.nic.phy80211p.decider "xmldoc(\"config.xml\")"
config *.**.nic.phy80211p.analogueModels "xmldoc(\"config.xml\")"
config *.**.nic.phy80211p.usePropagationDelay true
config *.**.nic.phy80211p.antenna "xmldoc(\"antenna.xml\", \"/root/Antenna[@id='monopole']\")"
config *.node[*].nic.phy80211p.antennaOffsetY "0 m"
config *.node[*].nic.phy80211p.antennaOffsetZ "1.895 m"
config *.node[*].applType "\"test.myveins.TraCI\""
config *.node[*].appl.headerLength "80 bit"
config *.node[*].appl.sendBeacons false
config *.node[*].appl.dataOnSch false
config *.node[*].appl.beaconInterval 1s
config *.node[*].veinsmobility.x 0
config *.node[*].veinsmobility.y 0
config *.node[*].veinsmobility.z 0
config *.node[*].veinsmobility.setHostSpeed true

vector 0 RSUExampleScenario.node[0].veinsmobility posx ETV
vector 1 RSUExampleScenario.node[0].veinsmobility posy ETV
vector 2 RSUExampleScenario.node[0].veinsmobility speed ETV
vector 3 RSUExampleScenario.node[0].veinsmobility acceleration ETV
vector 4 RSUExampleScenario.node[0].veinsmobility co2emission ETV
vector 5 RSUExampleScenario.node[1].veinsmobility posx ETV
vector 6 RSUExampleScenario.node[1].veinsmobility posy ETV
vector 7 RSUExampleScenario.node[1].veinsmobility speed ETV
vector 8 RSUExampleScenario.node[1].veinsmobility acceleration ETV
vector 9 RSUExampleScenario.node[1].veinsmobility co2emission ETV
vector 10 RSUExampleScenario.node[2].veinsmobility posx ETV
vector 11 RSUExampleScenario.node[2].veinsmobility posy ETV
vector 12 RSUExampleScenario.node[2].veinsmobility speed ETV
vector 13 RSUExampleScenario.node[2].veinsmobility acceleration ETV
vector 14 RSUExampleScenario.node[2].veinsmobility co2emission ETV
vector 15 RSUExampleScenario.node[3].veinsmobility posx ETV
vector 16 RSUExampleScenario.node[3].veinsmobility posy ETV
vector 17 RSUExampleScenario.node[3].veinsmobility speed ETV
vector 18 RSUExampleScenario.node[3].veinsmobility acceleration ETV
vector 19 RSUExampleScenario.node[3].veinsmobility co2emission ETV
vector 20 RSUExampleScenario.node[4].veinsmobility posx ETV
vector 21 RSUExampleScenario.node[4].veinsmobility posy ETV
vector 22 RSUExampleScenario.node[4].veinsmobility speed ETV
vector 23 RSUExampleScenario.node[4].veinsmobility acceleration ETV
vector 24 RSUExampleScenario.node[4].veinsmobility co2emission ETV
vector 25 RSUExampleScenario.node[5].veinsmobility posx ETV
vector 26 RSUExampleScenario.node[5].veinsmobility posy ETV
vector 27 RSUExampleScenario.node[5].veinsmobility speed ETV
vector 28 RSUExampleScenario.node[5].veinsmobility acceleration ETV
vector 29 RSUExampleScenario.node[5].veinsmobility co2emission ETV
vector 30 RSUExampleScenario.node[6].veinsmobility posx ETV
vector 31 RSUExampleScenario.node[6].veinsmobility posy ETV
vector 32 RSUExampleScenario.node[6].veinsmobility speed ETV
vector 33 RSUExampleScenario.node[6].veinsmobility acceleration ETV
vector 34 RSUExampleScenario.node[6].veinsmobility co2emission ETV
vector 35 RSUExampleScenario.node[7].veinsmobility posx ETV
vector 36 RSUExampleScenario.node[7].veinsmobility posy ETV
vector 37 RSUExampleScenario.node[7].veinsmobility speed ETV
vector 38 RSUExampleScenario.node[7].veinsmobility acceleration ETV
vector 39 RSUExampleScenario.node[7].veinsmobility co2emission ETV
vector 40 RSUExampleScenario.node[8].veinsmobility posx ETV
vector 41 RSUExampleScenario.node[8].veinsmobility posy ETV
vector 42 RSUExampleScenario.node[8].veinsmobility speed ETV
vector 43 RSUExampleScenario.node[8].veinsmobility acceleration ETV
vector 44 RSUExampleScenario.node[8].veinsmobility co2emission ETV
vector 45 RSUExampleScenario.node[9].veinsmobility posx ETV
vector 46 RSUExampleScenario.node[9].veinsmobility posy ETV
vector 47 RSUExampleScenario.node[9].veinsmobility speed ETV
vector 48 RSUExampleScenario.node[9].veinsmobility acceleration ETV
vector 49 RSUExampleScenario.node[9].veinsmobility co2emission ETV
vector 50 RSUExampleScenario.node[10].veinsmobility posx ETV
vector 51 RSUExampleScenario.node[10].veinsmobility posy ETV
vector 52 RSUExampleScenario.node[10].veinsmobility speed ETV
vector 53 RSUExampleScenario.node[10].veinsmobility acceleration ETV
vector 54 RSUExampleScenario.node[10].veinsmobility co2emission ETV
vector 55 RSUExampleScenario.node[11].veinsmobility posx ETV
vector 56 RSUExampleScenario.node[11].veinsmobility posy ETV
vector 57 RSUExampleScenario.node[11].veinsmobility speed ETV
vector 58 RSUExampleScenario.node[11].veinsmobility acceleration ETV
vector 59 RSUExampleScenario.node[11].veinsmobility co2emission ETV
vector 60 RSUExampleScenario.node[12].veinsmobility posx ETV
vector 61 RSUExampleScenario.node[12].veinsmobility posy ETV
vector 62 RSUExampleScenario.node[12].veinsmobility speed ETV
vector 63 RSUExampleScenario.node[12].veinsmobility acceleration ETV
vector 64 RSUExampleScenario.node[12].veinsmobility co2emission ETV
vector 65 RSUExampleScenario.node[13].veinsmobility posx ETV
vector 66 RSUExampleScenario.node[13].veinsmobility posy ETV
vector 67 RSUExampleScenario.node[13].veinsmobility speed ETV
vector 68 RSUExampleScenario.node[13].veinsmobility acceleration ETV
vector 69 RSUExampleScenario.node[13].veinsmobility co2emission ETV
vector 70 RSUExampleScenario.node[14].veinsmobility posx ETV
vector 71 RSUExampleScenario.node[14].veinsmobility posy ETV
vector 72 RSUExampleScenario.node[14].veinsmobility speed ETV
vector 73 RSUExampleScenario.node[14].veinsmobility acceleration ETV
vector 74 RSUExampleScenario.node[14].veinsmobility co2emission ETV
vector 75 RSUExampleScenario.node[15].veinsmobility posx ETV
vector 76 RSUExampleScenario.node[15].veinsmobility posy ETV
vector 77 RSUExampleScenario.node[15].veinsmobility speed ETV
vector 78 RSUExampleScenario.node[15].veinsmobility acceleration ETV
vector 79 RSUExampleScenario.node[15].veinsmobility co2emission ETV
vector 80 RSUExampleScenario.node[16].veinsmobility posx ETV
vector 81 RSUExampleScenario.node[16].veinsmobility posy ETV
vector 82 RSUExampleScenario.node[16].veinsmobility speed ETV
vector 83 RSUExampleScenario.node[16].veinsmobility acceleration ETV
vector 84 RSUExampleScenario.node[16].veinsmobility co2emission ETV
vector 85 RSUExampleScenario.node[17].veinsmobility posx ETV
vector 86 RSUExampleScenario.node[17].veinsmobility posy ETV
vector 87 RSUExampleScenario.node[17].veinsmobility speed ETV
vector 88 RSUExampleScenario.node[17].veinsmobility acceleration ETV
vector 89 RSUExampleScenario.node[17].veinsmobility co2emission ETV
vector 90 RSUExampleScenario.node[18].veinsmobility posx ETV
vector 91 RSUExampleScenario.node[18].veinsmobility posy ETV
vector 92 RSUExampleScenario.node[18].veinsmobility speed ETV
vector 93 RSUExampleScenario.node[18].veinsmobility acceleration ETV
vector 94 RSUExampleScenario.node[18].veinsmobility co2emission ETV
vector 95 RSUExampleScenario.node[19].veinsmobility posx ETV
vector 96 RSUExampleScenario.node[19].veinsmobility posy ETV
vector 97 RSUExampleScenario.node[19].veinsmobility speed ETV
vector 98 RSUExampleScenario.node[19].veinsmobility acceleration ETV
vector 99 RSUExampleScenario.node[19].veinsmobility co2emission ETV
vector 100 RSUExampleScenario.node[20].veinsmobility posx ETV
vector 101 RSUExampleScenario.node[20].veinsmobility posy ETV
vector 102 RSUExampleScenario.node[20].veinsmobility speed ETV
vector 103 RSUExampleScenario.node[20].veinsmobility acceleration ETV
vector 104 RSUExampleScenario.node[20].veinsmobility co2emission ETV
vector 105 RSUExampleScenario.node[21].veinsmobility posx ETV
vector 106 RSUExampleScenario.node[21].veinsmobility posy ETV
vector 107 RSUExampleScenario.node[21].veinsmobility speed ETV
vector 108 RSUExampleScenario.node[21].veinsmobility acceleration ETV
vector 109 RSUExampleScenario.node[21].veinsmobility co2emission ETV
vector 110 RSUExampleScenario.node[22].veinsmobility posx ETV
vector 111 RSUExampleScenario.node[22].veinsmobility posy ETV
vector 112 RSUExampleScenario.node[22].veinsmobility speed ETV
vector 113 RSUExampleScenario.node[22].veinsmobility acceleration ETV
vector 114 RSUExampleScenario.node[22].veinsmobility co2emission ETV
vector 115 RSUExampleScenario.node[23].veinsmobility posx ETV
vector 116 RSUExampleScenario.node[23].veinsmobility posy ETV
vector 117 RSUExampleScenario.node[23].veinsmobility speed ETV
vector 118 RSUExampleScenario.node[23].veinsmobility acceleration ETV
vector 119 RSUExampleScenario.node[23].veinsmobility co2emission ETV
vector 120 RSUExampleScenario.node[24].veinsmobility posx ETV
vector 121 RSUExampleScenario.node[24].veinsmobility posy ETV
vector 122 RSUExampleScenario.node[24].veinsmobility speed ETV
vector 123 RSUExampleScenario.node[24].veinsmobility acceleration ETV
vector 124 RSUExampleScenario.node[24].veinsmobility co2emission ETV
vector 125 RSUExampleScenario.node[25].veinsmobility posx ETV
vector 126 RSUExampleScenario.node[25].veinsmobility posy ETV
vector 127 RSUExampleScenario.node[25].veinsmobility speed ETV
vector 128 RSUExampleScenario.node[25].veinsmobility acceleration ETV
vector 129 RSUExampleScenario.node[25].veinsmobility co2emission ETV
vector 130 RSUExampleScenario.node[26].veinsmobility posx ETV
vector 131 RSUExampleScenario.node[26].veinsmobility posy ETV
vector 132 RSUExampleScenario.node[26].veinsmobility speed ETV
vector 133 RSUExampleScenario.node[26].veinsmobility acceleration ETV
vector 134 RSUExampleScenario.node[26].veinsmobility co2emission ETV
vector 135 RSUExampleScenario.node[27].veinsmobility posx ETV
vector 136 RSUExampleScenario.node[27].veinsmobility posy ETV
vector 137 RSUExampleScenario.node[27].veinsmobility speed ETV
vector 138 RSUExampleScenario.node[27].veinsmobility acceleration ETV
vector 139 RSUExampleScenario.node[27].veinsmobility co2emission ETV
vector 140 RSUExampleScenario.node[28].veinsmobility posx ETV
vector 141 RSUExampleScenario.node[28].veinsmobility posy ETV
vector 142 RSUExampleScenario.node[28].veinsmobility speed ETV
vector 143 RSUExampleScenario.node[28].veinsmobility acceleration ETV
vector 144 RSUExampleScenario.node[28].veinsmobility co2emission ETV
vector 145 RSUExampleScenario.node[29].veinsmobility posx ETV
vector 146 RSUExampleScenario.node[29].veinsmobility posy ETV
vector 147 RSUExampleScenario.node[29].veinsmobility speed ETV
vector 148 RSUExampleScenario.node[29].veinsmobility acceleration ETV
vector 149 RSUExampleScenario.node[29].veinsmobility co2emission ETV
vector 150 RSUExampleScenario.node[30].veinsmobility posx ETV
vector 151 RSUExampleScenario.node[30].veinsmobility posy ETV
vector 152 RSUExampleScenario.node[30].veinsmobility speed ETV
vector 153 RSUExampleScenario.node[30].veinsmobility acceleration ETV
vector 154 RSUExampleScenario.node[30].veinsmobility co2emission ETV
vector 155 RSUExampleScenario.node[31].veinsmobility posx ETV
vector 156 RSUExampleScenario.node[31].veinsmobility posy ETV
vector 157 RSUExampleScenario.node[31].veinsmobility speed ETV
vector 158 RSUExampleScenario.node[31].veinsmobility acceleration ETV
vector 159 RSUExampleScenario.node[31].veinsmobility co2emission ETV
vector 160 RSUExampleScenario.node[32].veinsmobility posx ETV
vector 161 RSUExampleScenario.node[32].veinsmobility posy ETV
vector 162 RSUExampleScenario.node[32].veinsmobility speed ETV
vector 163 RSUExampleScenario.node[32].veinsmobility acceleration ETV
vector 164 RSUExampleScenario.node[32].veinsmobility co2emission ETV
vector 165 RSUExampleScenario.node[33].veinsmobility posx ETV
vector 166 RSUExampleScenario.node[33].veinsmobility posy ETV
vector 167 RSUExampleScenario.node[33].veinsmobility speed ETV
vector 168 RSUExampleScenario.node[33].veinsmobility acceleration ETV
vector 169 RSUExampleScenario.node[33].veinsmobility co2emission ETV
vector 170 RSUExampleScenario.node[34].veinsmobility posx ETV
vector 171 RSUExampleScenario.node[34].veinsmobility posy ETV
vector 172 RSUExampleScenario.node[34].veinsmobility speed ETV
vector 173 RSUExampleScenario.node[34].veinsmobility acceleration ETV
vector 174 RSUExampleScenario.node[34].veinsmobility co2emission ETV
vector 175 RSUExampleScenario.node[35].veinsmobility posx ETV
vector 176 RSUExampleScenario.node[35].veinsmobility posy ETV
vector 177 RSUExampleScenario.node[35].veinsmobility speed ETV
vector 178 RSUExampleScenario.node[35].veinsmobility acceleration ETV
vector 179 RSUExampleScenario.node[35].veinsmobility co2emission ETV
vector 180 RSUExampleScenario.node[36].veinsmobility posx ETV
vector 181 RSUExampleScenario.node[36].veinsmobility posy ETV
vector 182 RSUExampleScenario.node[36].veinsmobility speed ETV
vector 183 RSUExampleScenario.node[36].veinsmobility acceleration ETV
vector 184 RSUExampleScenario.node[36].veinsmobility co2emission ETV
vector 185 RSUExampleScenario.node[37].veinsmobility posx ETV
vector 186 RSUExampleScenario.node[37].veinsmobility posy ETV
vector 187 RSUExampleScenario.node[37].veinsmobility speed ETV
vector 188 RSUExampleScenario.node[37].veinsmobility acceleration ETV
vector 189 RSUExampleScenario.node[37].veinsmobility co2emission ETV
vector 190 RSUExampleScenario.node[38].veinsmobility posx ETV
vector 191 RSUExampleScenario.node[38].veinsmobility posy ETV
vector 192 RSUExampleScenario.node[38].veinsmobility speed ETV
vector 193 RSUExampleScenario.node[38].veinsmobility acceleration ETV
vector 194 RSUExampleScenario.node[38].veinsmobility co2emission ETV
vector 195 RSUExampleScenario.node[39].veinsmobility posx ETV
vector 196 RSUExampleScenario.node[39].veinsmobility posy ETV
vector 197 RSUExampleScenario.node[39].veinsmobility speed ETV
vector 198 RSUExampleScenario.node[39].veinsmobility acceleration ETV
vector 199 RSUExampleScenario.node[39].veinsmobility co2emission ETV
vector 200 RSUExampleScenario.node[40].veinsmobility posx ETV
vector 201 RSUExampleScenario.node[40].veinsmobility posy ETV
vector 202 RSUExampleScenario.node[40].veinsmobility speed ETV
vector 203 RSUExampleScenario.node[40].veinsmobility acceleration ETV
vector 204 RSUExampleScenario.node[40].veinsmobility co2emission ETV
vector 205 RSUExampleScenario.node[41].veinsmobility posx ETV
vector 206 RSUExampleScenario.node[41].veinsmobility posy ETV
vector 207 RSUExampleScenario.node[41].veinsmobility speed ETV
vector 208 RSUExampleScenario.node[41].veinsmobility acceleration ETV
vector 209 RSUExampleScenario.node[41].veinsmobility co2emission ETV
vector 210 RSUExampleScenario.node[42].veinsmobility posx ETV
vector 211 RSUExampleScenario.node[42].veinsmobility posy ETV
vector 212 RSUExampleScenario.node[42].veinsmobility speed ETV
vector 213 RSUExampleScenario.node[42].veinsmobility acceleration ETV
vector 214 RSUExampleScenario.node[42].veinsmobility co2emission ETV
vector 215 RSUExampleScenario.node[43].veinsmobility posx ETV
vector 216 RSUExampleScenario.node[43].veinsmobility posy ETV
vector 217 RSUExampleScenario.node[43].veinsmobility speed ETV
vector 218 RSUExampleScenario.node[43].veinsmobility acceleration ETV
vector 219 RSUExampleScenario.node[43].veinsmobility co2emission ETV
vector 220 RSUExampleScenario.node[44].veinsmobility posx ETV
vector 221 RSUExampleScenario.node[44].veinsmobility posy ETV
vector 222 RSUExampleScenario.node[44].veinsmobility speed ETV
vector 223 RSUExampleScenario.node[44].veinsmobility acceleration ETV
vector 224 RSUExampleScenario.node[44].veinsmobility co2emission ETV
vector 225 RSUExampleScenario.node[45].veinsmobility posx ETV
vector 226 RSUExampleScenario.node[45].veinsmobility posy ETV
vector 227 RSUExampleScenario.node[45].veinsmobility speed ETV
vector 228 RSUExampleScenario.node[45].veinsmobility acceleration ETV
vector 229 RSUExampleScenario.node[45].veinsmobility co2emission ETV
vector 230 RSUExampleScenario.node[46].veinsmobility posx ETV
vector 231 RSUExampleScenario.node[46].veinsmobility posy ETV
vector 232 RSUExampleScenario.node[46].veinsmobility speed ETV
vector 233 RSUExampleScenario.node[46].veinsmobility acceleration ETV
vector 234 RSUExampleScenario.node[46].veinsmobility co2emission ETV
vector 235 RSUExampleScenario.node[47].veinsmobility posx ETV
vector 236 RSUExampleScenario.node[47].veinsmobility posy ETV
vector 237 RSUExampleScenario.node[47].veinsmobility speed ETV
vector 238 RSUExampleScenario.node[47].veinsmobility acceleration ETV
vector 239 RSUExampleScenario.node[47].veinsmobility co2emission ETV
vector 240 RSUExampleScenario.node[48].veinsmobility posx ETV
vector 241 RSUExampleScenario.node[48].veinsmobility posy ETV
vector 242 RSUExampleScenario.node[48].veinsmobility speed ETV
vector 243 RSUExampleScenario.node[48].veinsmobility acceleration ETV
vector 244 RSUExampleScenario.node[48].veinsmobility co2emission ETV
vector 245 RSUExampleScenario.node[49].veinsmobility posx ETV
vector 246 RSUExampleScenario.node[49].veinsmobility posy ETV
vector 247 RSUExampleScenario.node[49].veinsmobility speed ETV
vector 248 RSUExampleScenario.node[49].veinsmobility acceleration ETV
vector 249 RSUExampleScenario.node[49].veinsmobility co2emission ETV
vector 250 RSUExampleScenario.node[50].veinsmobility posx ETV
vector 251 RSUExampleScenario.node[50].veinsmobility posy ETV
vector 252 RSUExampleScenario.node[50].veinsmobility speed ETV
vector 253 RSUExampleScenario.node[50].veinsmobility acceleration ETV
vector 254 RSUExampleScenario.node[50].veinsmobility co2emission ETV
vector 255 RSUExampleScenario.node[51].veinsmobility posx ETV
vector 256 RSUExampleScenario.node[51].veinsmobility posy ETV
vector 257 RSUExampleScenario.node[51].veinsmobility speed ETV
vector 258 RSUExampleScenario.node[51].veinsmobility acceleration ETV
vector 259 RSUExampleScenario.node[51].veinsmobility co2emission ETV
vector 260 RSUExampleScenario.node[52].veinsmobility posx ETV
vector 261 RSUExampleScenario.node[52].veinsmobility posy ETV
vector 262 RSUExampleScenario.node[52].veinsmobility speed ETV
vector 263 RSUExampleScenario.node[52].veinsmobility acceleration ETV
vector 264 RSUExampleScenario.node[52].veinsmobility co2emission ETV
vector 265 RSUExampleScenario.node[53].veinsmobility posx ETV
vector 266 RSUExampleScenario.node[53].veinsmobility posy ETV
vector 267 RSUExampleScenario.node[53].veinsmobility speed ETV
vector 268 RSUExampleScenario.node[53].veinsmobility acceleration ETV
vector 269 RSUExampleScenario.node[53].veinsmobility co2emission ETV
vector 270 RSUExampleScenario.node[54].veinsmobility posx ETV
vector 271 RSUExampleScenario.node[54].veinsmobility posy ETV
vector 272 RSUExampleScenario.node[54].veinsmobility speed ETV
vector 273 RSUExampleScenario.node[54].veinsmobility acceleration ETV
vector 274 RSUExampleScenario.node[54].veinsmobility co2emission ETV
vector 275 RSUExampleScenario.node[55].veinsmobility posx ETV
vector 276 RSUExampleScenario.node[55].veinsmobility posy ETV
vector 277 RSUExampleScenario.node[55].veinsmobility speed ETV
vector 278 RSUExampleScenario.node[55].veinsmobility acceleration ETV
vector 279 RSUExampleScenario.node[55].veinsmobility co2emission ETV
vector 280 RSUExampleScenario.node[56].veinsmobility posx ETV
vector 281 RSUExampleScenario.node[56].veinsmobility posy ETV
vector 282 RSUExampleScenario.node[56].veinsmobility speed ETV
vector 283 RSUExampleScenario.node[56].veinsmobility acceleration ETV
vector 284 RSUExampleScenario.node[56].veinsmobility co2emission ETV
vector 285 RSUExampleScenario.node[57].veinsmobility posx ETV
vector 286 RSUExampleScenario.node[57].veinsmobility posy ETV
vector 287 RSUExampleScenario.node[57].veinsmobility speed ETV
vector 288 RSUExampleScenario.node[57].veinsmobility acceleration ETV
vector 289 RSUExampleScenario.node[57].veinsmobility co2emission ETV
vector 290 RSUExampleScenario.node[58].veinsmobility posx ETV
vector 291 RSUExampleScenario.node[58].veinsmobility posy ETV
vector 292 RSUExampleScenario.node[58].veinsmobility speed ETV
vector 293 RSUExampleScenario.node[58].veinsmobility acceleration ETV
vector 294 RSUExampleScenario.node[58].veinsmobility co2emission ETV
vector 295 RSUExampleScenario.node[59].veinsmobility posx ETV
vector 296 RSUExampleScenario.node[59].veinsmobility posy ETV
vector 297 RSUExampleScenario.node[59].veinsmobility speed ETV
vector 298 RSUExampleScenario.node[59].veinsmobility acceleration ETV
vector 299 RSUExampleScenario.node[59].veinsmobility co2emission ETV
vector 300 RSUExampleScenario.node[60].veinsmobility posx ETV
vector 301 RSUExampleScenario.node[60].veinsmobility posy ETV
vector 302 RSUExampleScenario.node[60].veinsmobility speed ETV
vector 303 RSUExampleScenario.node[60].veinsmobility acceleration ETV
vector 304 RSUExampleScenario.node[60].veinsmobility co2emission ETV
vector 305 RSUExampleScenario.node[61].veinsmobility posx ETV
vector 306 RSUExampleScenario.node[61].veinsmobility posy ETV
vector 307 RSUExampleScenario.node[61].veinsmobility speed ETV
vector 308 RSUExampleScenario.node[61].veinsmobility acceleration ETV
vector 309 RSUExampleScenario.node[61].veinsmobility co2emission ETV
vector 310 RSUExampleScenario.node[62].veinsmobility posx ETV
vector 311 RSUExampleScenario.node[62].veinsmobility posy ETV
vector 312 RSUExampleScenario.node[62].veinsmobility speed ETV
vector 313 RSUExampleScenario.node[62].veinsmobility acceleration ETV
vector 314 RSUExampleScenario.node[62].veinsmobility co2emission ETV
vector 315 RSUExampleScenario.node[63].veinsmobility posx ETV
vector 316 RSUExampleScenario.node[63].veinsmobility posy ETV
vector 317 RSUExampleScenario.node[63].veinsmobility speed ETV
vector 318 RSUExampleScenario.node[63].veinsmobility acceleration ETV
vector 319 RSUExampleScenario.node[63].veinsmobility co2emission ETV
vector 320 RSUExampleScenario.node[64].veinsmobility posx ETV
vector 321 RSUExampleScenario.node[64].veinsmobility posy ETV
vector 322 RSUExampleScenario.node[64].veinsmobility speed ETV
vector 323 RSUExampleScenario.node[64].veinsmobility acceleration ETV
vector 324 RSUExampleScenario.node[64].veinsmobility co2emission ETV
vector 325 RSUExampleScenario.node[65].veinsmobility posx ETV
vector 326 RSUExampleScenario.node[65].veinsmobility posy ETV
vector 327 RSUExampleScenario.node[65].veinsmobility speed ETV
vector 328 RSUExampleScenario.node[65].veinsmobility acceleration ETV
vector 329 RSUExampleScenario.node[65].veinsmobility co2emission ETV
vector 330 RSUExampleScenario.node[66].veinsmobility posx ETV
vector 331 RSUExampleScenario.node[66].veinsmobility posy ETV
vector 332 RSUExampleScenario.node[66].veinsmobility speed ETV
0	2	1	2414.8476884116
0	3	2	2411.8243290941
0	4	3	2407.1592244543
0	5	4	2402.288200066
0	19	5	2396.1394374635
0	20	6	2388.6993875942
0	21	7	2379.889221533
0	22	8	2370.1207192459
0	23	9	2360.3141803208
0	39	10	2350.5099475634
0	40	11	2341.0010868867
0	41	12	2334.5620136983
0	42	13	2337.6803779466
0	43	14	2348.3497968862
0	63	15	2358.6961674725
0	64	16	2371.6616533546
0	65	17	2385.4706804305
0	66	18	2399.3588350668
0	67	19	2412.4541998667
0	91	20	2421.4418196582
0	92	21	2428.417609864
0	93	22	2431.468930052
0	94	23	2433.1513403206
0	95	24	2435.1237040944
0	121	25	2437.2173147583
0	122	26	2438.6437980286
0	123	27	2439.5074353185
0	124	28	2440.517813261
0	125	29	2441.5286354903
0	155	30	2442.5392864447
0	156	31	2443.5505626462
0	157	32	2444.5611125134
0	158	33	2445.5724211388
0	159	34	2446.5834693939
0	193	35	2447.5934051003
0	194	36	2448.6036931522
0	195	37	2449.6148620235
0	196	38	2450.6248001783
0	197	39	2449.5880553933
0	233	40	2448.4757357414
0	234	41	2447.3635385588
0	235	42	2446.250303259
0	236	43	2445.1365203297
0	237	44	2444.0235521834
0	277	45	2442.9111769209
0	278	46	2441.7982721732
0	279	47	2440.6856421625
0	280	48	2439.7151308154
0	281	49	2438.7725309408
0	325	50	2437.9056889905
0	326	51	2432.8785054281
0	327	52	2422.5273191113
0	328	53	2409.439604845
0	329	54	2395.517893619
0	375	55	2381.592286239
0	376	56	2367.6659531716
0	377	57	2353.7601239877
0	378	58	2339.8337569573
0	379	59	2325.9069679289
0	429	60	2311.9542202253
0	430	61	2298.0325140053
0	431	62	2284.0857072632
0	432	63	2270.1754193477
0	433	64	2256.2378749268
0	487	65	2242.3725172955
0	488	66	2228.5623045168
0	489	67	2214.8068758136
0	490	68	2201.6159272967
0	491	69	2188.41049514
0	547	70	2175.4595331684
0	548	71	2163.4460695032
0	549	72	2152.2029822947
0	550	73	2144.5427125699
0	551	74	2138.2517542039
0	611	75	2131.6031976641
0	612	76	2123.7245495012
0	613	77	2114.5138282807
0	614	78	2104.9906822203
0	615	79	2095.4528474173
0	679	80	2085.921849304
0	680	81	2076.4021895963
0	681	82	2066.8834009347
0	682	83	2057.3555631002
0	683	84	2047.8289000805
0	749	85	2037.8304788755
0	750	86	2027.833111677
0	751	87	2017.8365675084
0	752	88	2007.8450014623
0	753	89	1997.8506574266
0	823	90	1987.8519452225
0	824	91	1977.8499046698
0	825	92	1967.8695698301
0	826	93	1957.8712840396
0	827	94	1947.8991902344
0	901	95	1937.9046679077
0	902	96	1928.1808791665
0	903	97	1918.4597283808
0	904	98	1908.7163778008
0	905	99	1898.9918594785
0	981	100	1889.2524383919
0	982	101	1879.5235884949
0	983	102	1869.7925182161
0	984	103	1860.0521754744
0	985	104	1850.3310386387
0	1065	105	1840.6010964974
0	1066	106	1830.6380025262
0	1067	107	1820.5335427993
0	1068	108	1810.4253660662
0	1069	109	1800.4496454754
0	1153	110	1790.5039753092
0	1154	111	1780.5377163711
0	1155	112	1770.5797160933
0	1156	113	1760.6312368424
0	1157	114	1750.6818088215
0	1243	115	1740.7325076626
0	1244	116	1730.7950304934
0	1245	117	1720.8419463823
0	1246	118	1710.8860888692
0	1247	119	1700.9373633374
0	1337	120	1690.9826007203
0	1338	121	1681.0512951794
0	1339	122	1671.1086676319
0	1340	123	1661.1483888736
0	1341	124	1651.1919097799
0	1435	125	1641.2419528231
0	1436	126	1631.2756400893
0	1437	127	1621.3310089785
0	1438	128	1611.5464398726
0	1439	129	1601.7355792182
0	1535	130	1591.913478425
0	1536	131	1582.1021831754
0	1537	132	1572.2849670661
0	1538	133	1562.464189676
0	1539	134	1552.0776733685
0	1639	135	1541.5273088192
0	1640	136	1530.9748204604
0	1641	137	1520.4195566579
0	1642	138	1509.8577003852
0	1643	139	1498.8750972506
0	1747	140	1487.4665984185
0	1748	141	1476.0615760193
0	1749	142	1464.6520996683
0	1750	143	1453.2465443392
0	1751	144	1441.1039884923
0	1857	145	1428.495735387
0	1858	146	1415.8660804114
0	1859	147	1403.2170989376
0	1860	148	1389.9532334083
0	1861	149	1376.6435092773
0	1971	150	1363.3628838336
0	1972	151	1349.7994653529
0	1973	152	1336.0383816989
0	1974	153	1322.4177380564
0	1975	154	1308.7061754538
0	2089	155	1294.974982831
0	2090	156	1281.2350183127
0	2091	157	1267.4670066896
0	2092	158	1253.6480536463
0	2093	159	1239.7840446378
0	2209	160	1225.935308534
0	2210	161	1212.0644882572
0	2211	162	1198.2047794097
0	2212	163	1184.3726895783
0	2213	164	1170.5132390769
0	2333	165	1156.6625797077
0	2334	166	1142.8033497942
0	2335	167	1128.9421111274
0	2336	168	1115.0737541905
0	2337	169	1101.1688172196
0	2461	170	1087.2732904286
0	2462	171	1073.3925605711
0	2463	172	1059.5280746599
0	2464	173	1045.6528244163
0	2465	174	1031.7612380423
0	2591	175	1017.8932118996
0	2592	176	1004.0228699722
0	2593	177	990.14253809478
0	2594	178	976.26937116636
0	2595	179	962.37858033867
0	2725	180	948.50027444132
0	2726	181	934.62173607689
0	2727	182	920.73106193729
0	2728	183	906.84384592692
0	2729	184	892.97787676763
0	2863	185	879.11017939239
0	2864	186	865.23971799086
0	2865	187	851.37323237373
0	2866	188	837.48679716606
0	2867	189	823.56504677259
0	3003	190	809.68605142704
0	3004	191	795.87006587046
0	3005	192	782.08562788728
0	3006	193	768.28984510095
0	3007	194	753.79171294207
0	3147	195	740.15409569826
0	3148	196	726.57426648703
0	3149	197	713.00435893214
0	3150	198	699.426976413
0	3151	199	685.93407499231
0	3295	200	672.47990041215
1	2	1	1578.4613427464
1	3	2	1579.5715045081
1	4	3	1581.5561876604
1	5	4	1586.4898643075
1	19	5	1592.7177137369
1	20	6	1600.2534592729
1	21	7	1609.1769437566
1	22	8	1619.0710908128
1	23	9	1629.0037637418
1	39	10	1638.9341008412
1	40	11	1649.1129276818
1	41	12	1661.0453354148
1	42	13	1673.5713017788
1	43	14	1682.4825292248
1	63	15	1691.8131453674
1	64	16	1695.5671389326
1	65	17	1697.3762977775
1	66	18	1698.7149431584
1	67	19	1699.9531973498
1	91	20	1700.8030368192
1	92	21	1701.4822415169
1	93	22	1709.488976148
1	94	23	1720.5600911779
1	95	24	1733.5392477075
1	121	25	1747.3162704222
1	122	26	1761.1584832035
1	123	27	1775.0702432813
1	124	28	1788.9649324082
1	125	29	1802.8657313576
1	155	30	1816.7641749373
1	156	31	1830.6712168986
1	157	32	1844.5682703312
1	158	33	1858.4757581847
1	159	34	1872.3796654344
1	193	35	1886.2682729438
1	194	36	1900.1617258992
1	195	37	1914.0672918586
1	196	38	1927.95593304
1	197	39	1941.8192613758
1	233	40	1955.7024557721
1	234	41	1969.5841215905
1	235	42	1983.4787444612
1	236	43	1997.3802024601
1	237	44	2011.2714909082
1	277	45	2025.1553793969
1	278	46	2039.0458765477
1	279	47	2052.9329446238
1	280	48	2066.8462265795
1	281	49	2080.7728807703
1	325	50	2094.6498483503
1	326	51	2107.3969092406
1	327	52	2116.410831539
1	328	53	2120.9360540062
1	329	54	2120.5048353085
1	375	55	2120.0344859883
1	376	56	2119.5641121576
1	377	57	2119.0944308629
1	378	58	2118.6240558857
1	379	59	2118.1536666537
1	429	60	2117.6824006466
1	430	61	2117.2121830918
1	431	62	2116.7411177447
1	432	63	2116.2712858524
1	433	64	2115.8005333487
1	487	65	2114.7955725584
1	488	66	2112.8371776454
1	489	67	2110.6451732265
1	490	68	2106.1714176713
1	491	69	2101.6927499389
1	547	70	2096.6090699211
1	548	71	2089.5369335469
1	549	72	2082.9183056299
1	550	73	2078.4088257942
1	551	74	2074.2903559692
1	611	75	2067.3817818612
1	612	76	2058.971316142
1	613	77	2049.1388609456
1	614	78	2038.9728918839
1	615	79	2028.7912425725
1	679	80	2018.6168914344
1	680	81	2008.4546440579
1	681	82	1998.2933265241
1	682	83	1988.1223489875
1	683	84	1977.9756270293
1	749	85	1968.2561725536
1	750	86	1958.5377426771
1	751	87	1948.8201128673
1	752	88	1939.107322284
1	753	89	1929.3918312211
1	823	90	1919.6720938664
1	824	91	1909.9491210273
1	825	92	1900.2472482882
1	826	93	1890.5279254494
1	827	94	1880.8340638112
1	901	95	1871.118399431
1	902	96	1861.1658687554
1	903	97	1851.2042144863
1	904	98	1841.2198111955
1	905	99	1831.2547060763
1	981	100	1821.2743294956
1	982	101	1811.3047856381
1	983	102	1801.3329664655
1	984	103	1791.3516454268
1	985	104	1781.3900054535
1	1065	105	1771.4193423288
1	1066	106	1761.659129858
1	1067	107	1752.0624689078
1	1068	108	1742.4622777505
1	1069	109	1732.7239433452
1	1153	110	1722.9770620158
1	1154	111	1713.210003431
1	1155	112	1703.451038437
1	1156	113	1693.7014041683
1	1157	114	1683.9508400932
1	1243	115	1674.200400345
1	1244	116	1664.4615482539
1	1245	117	1654.7074011648
1	1246	118	1644.9505361067
1	1247	119	1635.2006604802
1	1337	120	1625.4448684342
1	1338	121	1615.7120646164
1	1339	122	1605.9681650903
1	1340	123	1596.2069671573
1	1341	124	1586.4494929425
1	1435	125	1576.6984105036
1	1436	126	1566.9312991984
1	1437	127	1557.1854361556
1	1438	128	1547.4295889894
1	1439	129	1537.5259786015
1	1535	130	1527.6110218139
1	1536	131	1517.7069727229
1	1537	132	1507.7969467975
1	1538	133	1497.8833259232
1	1539	134	1488.6065424895
1	1639	135	1479.4804204116
1	1640	136	1470.3524612272
1	1641	137	1461.2221012693
1	1642	138	1452.0860387888
1	1643	139	1443.5132582681
1	1747	140	1435.4734509774
1	1748	141	1427.4360936014
1	1749	142	1419.3955974327
1	1750	143	1411.3578644907
1	1751	144	1404.5550873848
1	1857	145	1398.6108042216
1	1858	146	1392.6564309392
1	1859	147	1386.6929459916
1	1860	148	1382.2801104728
1	1861	149	1377.9859945839
1	1971	150	1373.7012668028
1	1972	151	1370.877351258
1	1973	152	1368.6765581928
1	1974	153	1366.2860487597
1	1975	154	1363.9661529455
1	2089	155	1361.5280942386
1	2090	156	1359.1968223732
1	2091	157	1357.1171251517
1	2092	158	1355.3359361785
1	2093	159	1353.8738508616
1	2209	160	1352.4133762103
1	2210	161	1350.9505725829
1	2211	162	1349.4889407568
1	2212	163	1348.0302216057
1	2213	164	1346.5686170245
1	2333	165	1345.1079395479
1	2334	166	1343.6463582292
1	2335	167	1342.1845650701
1	2336	168	1340.8122574305
1	2337	169	1339.8587760385
1	2461	170	1338.9009505054
1	2462	171	1337.7750581373
1	2463	172	1336.5858017765
1	2464	173	1335.3956220821
1	2465	174	1334.2040411197
1	2591	175	1333.0144810881
1	2592	176	1331.8247224139
1	2593	177	1330.6341068316
1	2594	178	1329.4441058375
1	2595	179	1328.252593115
1	2725	180	1327.0621513147
1	2726	181	1325.8716895739
1	2727	182	1324.6801868612
1	2728	183	1323.5080174059
1	2729	184	1322.399204297
1	2863	185	1321.2902529892
1	2864	186	1320.1810806515
1	2865	187	1319.0625476148
1	2866	188	1318.2223011516
1	2867	189	1317.4990933388
1	3003	190	1316.3093597628
1	3004	191	1314.6725065764
1	3005	192	1312.7914802004
1	3006	193	1310.908905711
1	3007	194	1312.2602335839
1	3147	195	1309.370100324
1	3148	196	1306.1926543359
1	3149	197	1303.0175298443
1	3150	198	1299.8406563401
1	3151	199	1296.3746683355
1	3295	200	1292.6124269906
2	3	2	4.1061966058897
2	4	3	6.0195495591482
2	5	4	7.7148368984793
2	19	5	9.5879868385225
2	20	6	11.391389363371
2	21	7	13.513839789145
2	22	8	13.99235115225
2	23	9	13.890224446259
2	39	10	13.976677174468
2	40	11	13.994826577434
2	41	12	13.923680325528
2	42	13	13.923542996629
2	43	14	13.91007151508
2	63	15	13.964598868005
2	64	16	13.995233640105
2	65	17	13.952304350403
2	66	18	13.956911946491
2	67	19	11.503494614513
2	91	20	7.0034946145128
2	92	21	7.8970062485022
2	93	22	10.10483181514
2	94	23	11.990706169653
2	95	24	13.981089308816
2	121	25	13.965594365916
2	122	26	13.989059597438
2	123	27	13.956378436291
2	124	28	13.910982951869
2	125	29	13.88918493646
2	155	30	13.908189346099
2	156	31	13.983992603337
2	157	32	13.971500478752
2	158	33	13.873081948087
2	159	34	13.985133641064
2	193	35	13.886848415199
2	194	36	13.876205747321
2	195	37	13.967912819823
2	196	38	13.871047234884
2	197	39	13.89239756926
2	233	40	13.872267716837
2	234	41	13.999815066161
2	235	42	13.964707984752
2	236	43	13.906584702837
2	237	44	13.922364303169
2	277	45	13.929034490574
2	278	46	13.93922677479
2	279	47	13.924399639922
2	280	48	13.96850544848
2	281	49	13.986686690277
2	325	50	13.935194088209
2	326	51	13.930097484484
2	327	52	13.948393711536
2	328	53	13.882971800906
2	329	54	13.87138918183
2	375	55	13.933780807857
2	376	56	13.942265776542
2	377	57	13.95140511482
2	378	58	13.886548467774
2	379	59	13.920721456567
2	429	60	13.906796863726
2	430	61	13.917803910668
2	431	62	13.924582225601
2	432	63	13.959688465288
2	433	64	13.957318032989
2	487	65	13.940553226951
2	488	66	13.879855337965
2	489	67	13.977758804618
2	490	68	13.914176650653
2	491	69	13.928041475909
2	547	70	13.977535404016
2	548	71	13.928572678084
2	549	72	11.364046791626
2	550	73	6.8640467916256
2	551	74	8.4782131283162
2	611	75	10.445661063163
2	612	76	12.519118856694
2	613	77	13.991704303646
2	614	78	13.937640864081
2	615	79	13.909840586104
2	679	80	13.9868867786
2	680	81	13.884608772129
2	681	82	13.932486002932
2	682	83	13.933768573357
2	683	84	13.878650632019
2	749	85	13.945760953585
2	750	86	13.92992599302
2	751	87	13.882018232113
2	752	88	13.939167882889
2	753	89	13.977764886424
2	823	90	13.894534370045
2	824	91	13.97501944537
2	825	92	13.884102251558
2	826	93	13.933503699079
2	827	94	13.929935510485
2	901	95	13.932084917249
2	902	96	13.988024637371
2	903	97	13.905199357776
2	904	98	13.983067730833
2	905	99	13.914689087677
2	981	100	13.959573372188
2	982	101	13.923151327679
2	983	102	13.920919575624
2	984	103	13.944676370309
2	985	104	13.937630747855
2	1065	105	13.901362465066
2	1066	106	13.954829121996
2	1067	107	13.995929163198
2	1068	108	13.874930824707
2	1069	109	13.984519628591
2	1153	110	13.889212720471
2	1154	111	13.963822322665
2	1155	112	13.958530322548
2	1156	113	13.874052066777
2	1157	114	13.908796167534
2	1243	115	13.886920479788
2	1244	116	13.878786080943
2	1245	117	13.959596861263
2	1246	118	13.890223425198
2	1247	119	13.92385759518
2	1337	120	13.972125979499
2	1338	121	13.871858082113
2	1339	122	13.888555567344
2	1340	123	13.991342874712
2	1341	124	13.966890973572
2	1435	125	13.896670119623
2	1436	126	13.956083062813
2	1437	127	13.927198537595
2	1438	128	13.929496678174
2	1439	129	13.878089943773
2	1535	130	13.993096217676
2	1536	131	13.875779724845
2	1537	132	13.913274697398
2	1538	133	13.919895130382
2	1539	134	13.88549514615
2	1639	135	13.879287964974
2	1640	136	13.94209516291
2	1641	137	13.94479850577
2	1642	138	13.941320902742
2	1643	139	13.916869602846
2	1747	140	13.969763523631
2	1748	141	13.879654002239
2	1749	142	13.954648244248
2	1750	143	13.980948975335
2	1751	144	13.946562061303
2	1857	145	13.880639836157
2	1858	146	13.945333202807
2	1859	147	13.879452574104
2	1860	148	13.994609436856
2	1861	149	13.989116368371
2	1971	150	13.909947179651
2	1972	151	13.943677626096
2	1973	152	13.955198793265
2	1974	153	13.971765304056
2	1975	154	13.916379293262
2	2089	155	13.876098527862
2	2090	156	13.917471618634
2	2091	157	13.994427491466
2	2092	158	13.974751957422
2	2093	159	13.976185514266
2	2209	160	13.998359918438
2	2210	161	13.959418661566
2	2211	162	13.990113809092
2	2212	163	13.948902800528
2	2213	164	13.900080059238
2	2333	165	13.932041595592
2	2334	166	13.92637393944
2	2335	167	13.89475819679
2	2336	168	13.974240899589
2	2337	169	13.982920109942
2	2461	170	13.98566476542
2	2462	171	13.994187416655
2	2463	172	13.979502878073
2	2464	173	13.971636267495
2	2465	174	13.95793872149
2	2591	175	13.896624165105
2	2592	176	13.997516584068
2	2593	177	13.958810173364
2	2594	178	13.994584853351
2	2595	179	13.937199156948
2	2725	180	13.947940933374
2	2726	181	13.94147206862
2	2727	182	13.921638553711
2	2728	183	13.962689000308
2	2729	184	13.930471157786
2	2863	185	13.875090221933
2	2864	186	13.881036365298
2	2865	187	13.9192554124
2	2866	188	13.897186994841
2	2867	189	13.938180947609
2	3003	190	13.9756765445
2	3004	191	13.923661360638
2	3005	192	13.872051767365
2	3006	193	13.909061490595
2	3007	194	13.89299565587
2	3147	195	13.919382929872
2	3148	196	13.91724806533
2	3149	197	13.944629625464
2	3150	198	13.942991133153
2	3151	199	13.945376214006
2	3295	200	13.874038293089
3	4	3	1.9133529532584
3	5	4	1.6952873393311
3	19	5	1.8731499400432
3	20	6	1.8034025248489
3	21	7	2.1224504257739
3	22	8	0.47851136310433
3	23	9	-0.1021267059911
3	39	10	0.086452728209551
3	40	11	0.018149402965792
3	41	12	-0.071146251906175
3	42	13	-0.0001373288989992
3	43	14	-0.013471481548622
3	63	15	0.054527352924923
3	64	16	0.03063477210002
3	65	17	-0.04292928970186
3	66	18	0.0046075960877356
3	67	19	-2.4534173319781
3	91	20	-4.5
3	92	21	0.8935116339894
3	93	22	2.2078255666373
3	94	23	1.8858743545134
3	95	24	1.9903831391631
3	121	25	-0.01549494290026
3	122	26	0.023465231521987
3	123	27	-0.032681161146611
3	124	28	-0.045395484422334
3	125	29	-0.021798015409148
3	155	30	0.019004409639164
3	156	31	0.075803257238585
3	157	32	-0.012492124584968
3	158	33	-0.098418530665803
3	159	34	0.11205169297755
3	193	35	-0.098285225864965
3	194	36	-0.01064266787842
3	195	37	0.091707072502468
3	196	38	-0.096865584938786
3	197	39	0.021350334375166
3	233	40	-0.020129852422979
3	234	41	0.12754734932445
3	235	42	-0.035107081409079
3	236	43	-0.058123281914741
3	237	44	0.015779600332026
3	277	45	0.0066701874043797
3	278	46	0.010192284216172
3	279	47	-0.014827134867664
3	280	48	0.044105808557942
3	281	49	0.018181241797283
3	325	50	-0.051492602068466
3	326	51	-0.0050966037251055
3	327	52	0.018296227052343
3	328	53	-0.065421910630539
3	329	54	-0.011582619075197
3	375	55	0.062391626026946
3	376	56	0.0084849686850799
3	377	57	0.0091393382777465
3	378	58	-0.064856647045817
3	379	59	0.034172988792415
3	429	60	-0.013924592840485
3	430	61	0.011007046941668
3	431	62	0.0067783149331806
3	432	63	0.035106239686721
3	433	64	-0.0023704322986315
3	487	65	-0.016764806038699
3	488	66	-0.060697888985743
3	489	67	0.097903466653079
3	490	68	-0.063582153965253
3	491	69	0.013864825256169
3	547	70	0.049493928106967
3	548	71	-0.048962725931778
3	549	72	-2.5645258864584
3	550	73	-4.5
3	551	74	1.6141663366905
3	611	75	1.9674479348469
3	612	76	2.0734577935305
3	613	77	1.472585446952
3	614	78	-0.054063439564779
3	615	79	-0.027800277976786
3	679	80	0.077046192495619
3	680	81	-0.1022780064703
3	681	82	0.04787723080255
3	682	83	0.0012825704249551
3	683	84	-0.055117941338104
3	749	85	0.067110321565998
3	750	86	-0.015834960564971
3	751	87	-0.047907760906964
3	752	88	0.057149650775827
3	753	89	0.038597003535834
3	823	90	-0.0832305163797
3	824	91	0.080485075325706
3	825	92	-0.090917193812784
3	826	93	0.049401447521522
3	827	94	-0.0035681885946541
3	901	95	0.0021494067646568
3	902	96	0.055939720121678
3	903	97	-0.082825279594399
3	904	98	0.077868373056408
3	905	99	-0.068378643156029
3	981	100	0.044884284511209
3	982	101	-0.036422044509091
3	983	102	-0.0022317520552306
3	984	103	0.023756794685031
3	985	104	-0.0070456224540241
3	1065	105	-0.036268282788805
3	1066	106	0.053466656929812
3	1067	107	0.041100041202736
3	1068	108	-0.12099833849119
3	1069	109	0.10958880388411
3	1153	110	-0.095306908120401
3	1154	111	0.074609602193814
3	1155	112	-0.0052920001163148
3	1156	113	-0.084478255771101
3	1157	114	0.034744100756944
3	1243	115	-0.021875687746798
3	1244	116	-0.0081343988445575
3	1245	117	0.080810780320316
3	1246	118	-0.069373436064925
3	1247	119	0.033634169981815
3	1337	120	0.048268384318799
3	1338	121	-0.10026789738564
3	1339	122	0.016697485230397
3	1340	123	0.10278730736813
3	1341	124	-0.024451901139692
3	1435	125	-0.070220853949431
3	1436	126	0.059412943189963
3	1437	127	-0.028884525217581
3	1438	128	0.0022981405793683
3	1439	129	-0.051406734401827
3	1535	130	0.11500627390342
3	1536	131	-0.11731649283087
3	1537	132	0.037494972553104
3	1538	133	0.0066204329836186
3	1539	134	-0.034399984232149
3	1639	135	-0.0062071811757054
3	1640	136	0.062807197936344
3	1641	137	0.0027033428591672
3	1642	138	-0.0034776030271306
3	1643	139	-0.024451299896464
3	1747	140	0.052893920785282
3	1748	141	-0.090109521392732
3	1749	142	0.074994242009707
3	1750	143	0.026300731087103
3	1751	144	-0.034386914032511
3	1857	145	-0.065922225145624
3	1858	146	0.064693366650026
3	1859	147	-0.065880628703161
3	1860	148	0.11515686275204
3	1861	149	-0.0054930684855208
3	1971	150	-0.079169188719241
3	1972	151	0.033730446444824
3	1973	152	0.011521167168393
3	1974	153	0.01656651079189
3	1975	154	-0.0553860107949
3	2089	155	-0.040280765399803
3	2090	156	0.041373090771959
3	2091	157	0.076955872832331
3	2092	158	-0.019675534043927
3	2093	159	0.0014335568435495
3	2209	160	0.022174404172693
3	2210	161	-0.038941256871913
3	2211	162	0.030695147525986
3	2212	163	-0.04121100856457
3	2213	164	-0.048822741289623
3	2333	165	0.03196153635392
3	2334	166	-0.0056676561525091
3	2335	167	-0.031615742649883
3	2336	168	0.079482702799142
3	2337	169	0.0086792103527102
3	2461	170	0.0027446554787467
3	2462	171	0.008522651235106
3	2463	172	-0.014684538582804
3	2464	173	-0.0078666105773308
3	2465	174	-0.013697546005714
3	2591	175	-0.06131455638446
3	2592	176	0.1008924189629
3	2593	177	-0.038706410704181
3	2594	178	0.035774679987226
3	2595	179	-0.057385696403216
3	2725	180	0.010741776425856
3	2726	181	-0.0064688647538418
3	2727	182	-0.01983351490926
3	2728	183	0.041050446596929
3	2729	184	-0.032217842522078
3	2863	185	-0.055380935852881
3	2864	186	0.0059461433649997
3	2865	187	0.038219047102611
3	2866	188	-0.022068417558913
3	2867	189	0.040993952767458
3	3003	190	0.037495596890803
3	3004	191	-0.052015183861368
3	3005	192	-0.051609593273605
3	3006	193	0.037009723230732
3	3007	194	-0.016065834725742
3	3147	195	0.026387274002191
3	3148	196	-0.0021348645421675
3	3149	197	0.027381560134234
3	3150	198	-0.0016384923108852
3	3151	199	0.0023850808525463
3	3295	200	-0.071337920916267
4	4	3	4.1962556146115
4	5	4	4.6765885426193
4	19	5	5.9822455727343
4	20	6	6.7469998477461
4	21	7	8.9023657158011
4	22	8	3.651678681686
4	23	9	1.6857621818206
4	39	10	2.3276633668785
4	40	11	2.0995306276608
4	41	12	1.7923040941768
4	42	13	2.0305681317735
4	43	14	1.9844951865828
4	63	15	2.2187318873595
4	64	16	2.1416854339172
4	65	17	1.8896148890835
4	66	18	2.0499339673421
4	67	19	0.973
4	91	20	0.973
4	92	21	3.236958348016
4	93	22	7.0694109561587
4	94	23	7.2974163894139
4	95	24	8.7433911631671
4	121	25	1.9831721788576
4	122	26	2.116835898497
4	123	27	1.9244585801898
4	124	28	1.8775583559564
4	125	29	1.9545657515643
4	155	30	2.0931646705581
4	156	31	2.2926746988581
4	157	32	1.993865292131
4	158	33	1.6968396252803
4	159	34	2.4149847823944
4	193	35	1.6983583398882
4	194	36	1.9906198998388
4	195	37	2.3442713071536
4	196	38	1.7018725964397
4	197	39	2.0993392475273
4	233	40	1.9585122345881
4	234	41	2.4691677522194
4	235	42	1.9170802753567
4	236	43	1.8345014514108
4	237	44	2.0838538984303
4	277	45	2.0539801513469
4	278	46	2.0668686152862
4	279	47	1.9813596940184
4	280	48	2.1840996762636
4	281	49	2.0987681125428
4	325	50	1.8592856847688
4	326	51	2.0145873760113
4	327	52	2.0950692067684
4	328	53	1.8080099866508
4	329	54	1.9870007069688
4	375	55	2.2415869227426
4	376	56	2.0614496349521
4	377	57	2.0646020593826
4	378	58	1.8102089718445
4	379	59	2.1453880261281
4	429	60	1.9826536733129
4	430	61	2.0673636130683
4	431	62	2.0538817544551
4	432	63	2.1528270365066
4	433	64	2.0265038417738
4	487	65	1.9764402783138
4	488	66	1.823544423566
4	489	67	2.3663700564531
4	490	68	1.816863137639
4	491	69	2.0780272006119
4	547	70	2.2032702170206
4	548	71	1.8671845150559
4	549	72	0.973
4	550	73	0.973
4	551	74	4.8734303977071
4	611	75	6.6720490022048
4	612	76	8.1510243161033
4	613	77	7.0035563298485
4	614	78	1.8508696851047
4	615	79	1.9364383963061
4	679	80	2.2972138031298
4	680	81	1.684823067126
4	681	82	2.1926999225795
4	682	83	2.0363789456198
4	683	84	1.8421031736648
4	749	85	2.2588493406892
4	750	86	1.9785202232272
4	751	87	1.866522840978
4	752	88	2.2246081928829
4	753	89	2.1665886194004
4	823	90	1.7493699939429
4	824	91	2.3073601899623
4	825	92	1.7227981158715
4	826	93	2.1979337916806
4	827	94	2.0197021153789
4	901	95	2.0391171435245
4	902	96	2.2261991945464
4	903	97	1.7515996111392
4	904	98	2.2995223407801
4	905	99	1.8008227620704
4	981	100	2.1857101524767
4	982	101	1.9087755896745
4	983	102	2.0232740750882
4	984	103	2.1130242583451
4	985	104	2.0088001748926
4	1065	105	1.9072621324086
4	1066	106	2.2140373373517
4	1067	107	2.1770614278808
4	1068	108	1.6214799126069
4	1069	109	2.406604701876
4	1153	110	1.7085120952074
4	1154	111	2.2862246720599
4	1155	112	2.0167989138387
4	1156	113	1.7435265139033
4	1157	114	2.1459890126964
4	1243	115	1.9540874170881
4	1244	116	1.9992651020717
4	1245	117	2.3065789831658
4	1246	118	1.7954051102597
4	1247	119	2.1439255198753
4	1337	120	2.1985252127976
4	1338	121	1.6905616906288
4	1339	122	2.0833549539277
4	1340	123	2.3845499962169
4	1341	124	1.9531506691594
4	1435	125	1.7931150979363
4	1436	126	2.2341814993205
4	1437	127	1.9344521408622
4	1438	128	2.0393510434439
4	1439	129	1.8544662206567
4	1535	130	2.4259796074968
4	1536	131	1.633853726441
4	1537	132	2.1557066895618
4	1538	133	2.0528665696243
4	1539	134	1.912038644498
4	1639	135	2.0057614883071
4	1640	136	2.2439569957465
4	1641	137	2.0422831708116
4	1642	138	2.0211586772768
4	1643	139	1.9483398360883
4	1747	140	2.2138288263991
4	1748	141	1.7251450962234
4	1749	142	2.2864152999202
4	1750	143	2.1255131166097
4	1751	144	1.9177995876918
4	1857	145	1.8061360510748
4	1858	146	2.2506757699835
4	1859	147	1.8061733875953
4	1860	148	2.4266845615448
4	1861	149	2.0192126891949
4	1971	150	1.7642446806966
4	1972	151	2.1464322636876
4	1973	152	2.0730086917411
4	1974	153	2.0917377012561
4	1975	154	1.8445424560731
4	2089	155	1.8914953412395
4	2090	156	2.1691799351963
4	2091	157	2.2978220226587
4	2092	158	1.9699951794538
4	2093	159	2.041236054439
4	2209	160	2.1134871274209
4	2210	161	1.9036851063429
4	2211	162	2.1413264045017
4	2212	163	1.8950788450201
4	2213	164	1.8650863811811
4	2333	165	2.1392105637573
4	2334	166	2.0122955373724
4	2335	167	1.9222274042906
4	2336	168	2.3038896127754
4	2337	169	2.0663450153067
4	2461	170	2.0466292249485
4	2462	171	2.0669951327839
4	2463	172	1.9872740217513
4	2464	173	2.009453645548
4	2465	174	1.9884640791529
4	2591	175	1.8229391595762
4	2592	176	2.3789436116768
4	2593	177	1.9044186435818
4	2594	178	2.1589494721561
4	2595	179	1.8396713411021
4	2725	180	2.0696270191915
4	2726	181	2.0111236607463
4	2727	182	1.9642910512727
4	2728	183	2.1731615557441
4	2729	184	1.923572434874
4	2863	185	1.840909277163
4	2864	186	2.0465934460311
4	2865	187	2.1587991708563
4	2866	188	1.9544321514284
4	2867	189	2.1702252183444
4	3003	190	2.1626457034002
4	3004	191	1.8564987431543
4	3005	192	1.8532493966322
4	3006	193	2.1536128150852
4	3007	194	1.9741259032611
4	3147	195	2.1191228175185
4	3148	196	2.0232267690783
4	3149	197	2.1252008054669
4	3150	198	2.0275077178617
4	3151	199	2.0412729242551
4	3295	200	1.7874619867738
5	5	4	2414.8767583254
5	19	5	2411.8725636174
5	20	6	2407.2970525089
5	21	7	2402.4626210862
5	22	8	2396.3056860371
5	23	9	2388.8743536096
5	39	10	2380.097228827
5	40	11	2370.3507264333
5	41	12	2360.5878487076
5	42	13	2350.7849318213
5	43	14	2341.2418729237
5	63	15	2334.6305580324
5	64	16	2337.3467480277
5	65	17	2348.0519014368
5	66	18	2358.3998493504
5	67	19	2371.2788021446
5	91	20	2385.0887639745
5	92	21	2398.4985461925
5	93	22	2411.2485283293
5	94	23	2420.6905829484
5	95	24	2427.6440450998
5	121	25	2431.3031180431
5	122	26	2432.9057471878
5	123	27	2434.8184996871
5	124	28	2436.9106889558
5	125	29	2438.5031214217
5	155	30	2439.359314087
5	156	31	2440.3695716034
5	157	32	2441.3815056744
5	158	33	2442.392207776
5	159	34	2443.4019859718
5	193	35	2444.4122552489
5	194	36	2445.4251439738
5	195	37	2446.4367595227
5	196	38	2447.4467230743
5	197	39	2448.4574488286
5	233	40	2449.467800329
5	234	41	2450.4780716181
5	235	42	2449.7461704329
5	236	43	2448.6331060936
5	237	44	2447.5209445587
5	277	45	2446.407523851
5	278	46	2445.2946584851
5	279	47	2444.1824360332
5	280	48	2443.0706190476
5	281	49	2441.9568028547
5	325	50	2440.8451110823
5	326	51	2439.8503503047
5	327	52	2438.9091742415
5	328	53	2438.2310626655
5	329	54	2433.9050446447
5	375	55	2424.21615465
5	376	56	2411.3460908785
5	377	57	2397.4706148925
5	378	58	2383.5587488873
5	379	59	2369.633660475
5	429	60	2355.7048479554
5	430	61	2341.7904321874
5	431	62	2327.8638711022
5	432	63	2313.9188814831
5	433	64	2299.9979078089
5	487	65	2286.0826278217
5	488	66	2272.1469357561
5	489	67	2258.2076214411
5	490	68	2244.3155730069
5	491	69	2230.5273849192
5	547	70	2216.7446519198
5	548	71	2203.5167182724
5	549	72	2190.3178840362
5	550	73	2177.2322881214
5	551	74	2165.2422812313
5	611	75	2153.7744871959
5	612	76	2145.5029597223
5	613	77	2139.4797860939
5	614	78	2133.0814380405
5	615	79	2125.6493288035
5	679	80	2116.7922242758
5	680	81	2107.2601465182
5	681	82	2097.7230660543
5	682	83	2088.2135833799
5	683	84	2078.6701453952
5	749	85	2069.1471908833
5	750	86	2059.6181056392
5	751	87	2050.097803809
5	752	88	2040.2011651009
5	753	89	2030.2181100189
5	823	90	2020.2465299903
5	824	91	2010.259076995
5	825	92	2000.2690088704
5	826	93	1990.2785512157
5	827	94	1980.2937329432
5	901	95	1970.2998628091
5	902	96	1960.3177665701
5	903	97	1950.3198386049
5	904	98	1940.3309043255
5	905	99	1930.5210672673
5	981	100	1920.7842227771
5	982	101	1911.0444423415
5	983	102	1901.3145528267
5	984	103	1891.5844860966
5	985	104	1881.8507916187
5	1065	105	1872.1148589387
5	1066	106	1862.3738590422
5	1067	107	1852.6516930487
5	1068	108	1842.9244238556
5	1069	109	1833.0549251552
5	1153	110	1822.9498446517
5	1154	111	1812.856156671
5	1155	112	1802.8471915137
5	1156	113	1792.9022246078
5	1157	114	1782.9594273164
5	1243	115	1773.0117870554
5	1244	116	1763.0639738236
5	1245	117	1753.0947060039
5	1246	118	1743.1490271079
5	1247	119	1733.206321739
5	1337	120	1723.247506735
5	1338	121	1713.2859320362
5	1339	122	1703.3405385944
5	1340	123	1693.3886634884
5	1341	124	1683.4326681074
5	1435	125	1673.4905689379
5	1436	126	1663.5455401361
5	1437	127	1653.5963440761
5	1438	128	1643.6420908726
5	1439	129	1633.6864778843
5	1535	130	1623.7320200648
5	1536	131	1613.9062480221
5	1537	132	1604.078278399
5	1538	133	1594.2576041986
5	1539	134	1584.4353092505
5	1639	135	1574.6147094269
5	1640	136	1564.7904524674
5	1641	137	1554.5651495617
5	1642	138	1544.0138574993
5	1643	139	1533.479343603
5	1747	140	1522.9231533395
5	1748	141	1512.3705655155
5	1749	142	1501.6038236319
5	1750	143	1490.19916194
5	1751	144	1478.7987847666
5	1857	145	1467.3719257778
5	1858	146	1455.9793732606
5	1859	147	1444.1461215003
5	1860	148	1431.5241054755
5	1861	149	1418.9022929177
5	1971	150	1406.2610574762
5	1972	151	1393.1745039365
5	1973	152	1379.8742078143
5	1974	153	1366.5531284756
5	1975	154	1353.1230801636
5	2089	155	1339.3238362554
5	2090	156	1325.6909033386
5	2091	157	1311.9728215458
5	2092	158	1298.2134912781
5	2093	159	1284.4969418647
5	2209	160	1270.703806322
5	2210	161	1256.8938687951
5	2211	162	1243.0310112567
5	2212	163	1229.1823076452
5	2213	164	1215.3250866644
5	2333	165	1201.4673475495
5	2334	166	1187.614097396
5	2335	167	1173.7462689573
5	2336	168	1159.8775890496
5	2337	169	1146.0087951118
5	2461	170	1132.1385285988
5	2462	171	1118.2612682566
5	2463	172	1104.3685765566
5	2464	173	1090.4675828299
5	2465	174	1076.563639605
5	2591	175	1062.6681991477
5	2592	176	1048.8023805809
5	2593	177	1034.9302309703
5	2594	178	1021.0485830443
5	2595	179	1007.1643099213
5	2725	180	993.29210160486
5	2726	181	979.41772554582
5	2727	182	965.53123708558
5	2728	183	951.68289496109
5	2729	184	937.80239598115
5	2863	185	923.926567171
5	2864	186	910.07353684772
5	2865	187	896.17541266163
5	2866	188	882.28782077588
5	2867	189	868.40299321793
5	3003	190	854.52535005426
5	3004	191	840.62636560318
5	3005	192	826.71442803834
5	3006	193	812.83557330735
5	3007	194	798.99940234981
5	3147	195	785.22834806331
5	3148	196	771.39570310724
5	3149	197	756.93894806423
5	3150	198	743.25071172602
5	3151	199	729.69822016894
5	3295	200	716.11358429538
6	5	4	1578.4506684253
6	19	5	1579.5537930429
6	20	6	1581.4165868293
6	21	7	1586.3131998433
6	22	8	1592.5493268352
6	23	9	1600.0762428036
6	39	10	1608.9662610246
6	40	11	1618.8381252186
6	41	12	1628.7265753681
6	42	13	1638.6555796713
6	43	14	1648.8046840783
6	63	15	1660.6325348346
6	64	16	1673.301875555
6	65	17	1682.2138796467
6	66	18	1691.5459182626
6	67	19	1695.5099147679
6	91	20	1697.3308411958
6	92	21	1698.6335971011
6	93	22	1699.8391930545
6	94	23	1700.7320023719
6	95	24	1701.2941834759
6	121	25	1708.3978488175
6	122	26	1718.9439634858
6	123	27	1731.5308475178
6	124	28	1745.2985167308
6	125	29	1759.1189484736
6	155	30	1773.033284259
6	156	31	1786.9263172904
6	157	32	1800.8424062571
6	158	33	1814.7415532097
6	159	34	1828.6279946407
6	193	35	1842.5211894047
6	194	36	1856.4504067414
6	195	37	1870.362115399
6	196	38	1884.2511058366
6	197	39	1898.150578063
6	233	40	1912.0449035605
6	234	41	1925.9381259941
6	235	42	1939.8457802581
6	236	43	1953.7382693188
6	237	44	1967.6194902081
6	277	45	1981.5164272105
6	278	46	1995.4064328251
6	279	47	2009.2884140396
6	280	48	2023.165334505
6	281	49	2037.0672076773
6	325	50	2050.942565321
6	326	51	2064.8483957723
6	327	52	2078.754013543
6	328	53	2092.6537938379
6	329	54	2105.6893007364
6	375	55	2115.3934075218
6	376	56	2120.5034639826
6	377	57	2120.5707901428
6	378	58	2120.100904949
6	379	59	2119.6305731572
6	429	60	2119.160115581
6	430	61	2118.6901442679
6	431	62	2118.2197627351
6	432	63	2117.748758764
6	433	64	2117.2785659507
6	487	65	2116.8085654471
6	488	66	2116.3378755087
6	489	67	2115.8670632252
6	490	68	2115.0711128758
6	491	69	2113.1158412341
6	547	70	2111.1613431666
6	548	71	2106.8160774671
6	549	72	2102.339647443
6	550	73	2097.6526627708
6	551	74	2090.5943350308
6	611	75	2083.8434257517
6	612	76	2078.9741081316
6	613	77	2075.2709485972
6	614	78	2068.9598051151
6	615	79	2061.0260201981
6	679	80	2051.5710512167
6	680	81	2041.3955475576
6	681	82	2031.214703504
6	682	83	2021.0633201217
6	683	84	2010.8756894078
6	749	85	2000.7099248236
6	750	86	1990.5376156764
6	751	87	1980.3746828334
6	752	88	1970.5607140781
6	753	89	1960.856196994
6	823	90	1951.162834798
6	824	91	1941.4540425073
6	825	92	1931.7427080525
6	826	93	1922.0309949359
6	827	94	1912.3247638568
6	901	95	1902.6097334735
6	902	96	1892.9061484793
6	903	97	1883.187173483
6	904	98	1873.4769412372
6	905	99	1863.5639536427
6	981	100	1853.5862174034
6	982	101	1843.6054725833
6	983	102	1833.6348633869
6	984	103	1823.6640725909
6	985	104	1813.689564296
6	1065	105	1803.7127624257
6	1066	106	1793.7307679746
6	1067	107	1783.7680733819
6	1068	108	1773.8001493346
6	1069	109	1763.9545902424
6	1153	110	1754.3573397137
6	1154	111	1744.7709091762
6	1155	112	1735.0735684922
6	1156	113	1725.3273763657
6	1157	114	1715.5833104886
6	1243	115	1705.8344984408
6	1244	116	1696.0855168793
6	1245	117	1686.3155095531
6	1246	118	1676.5686196676
6	1247	119	1666.8246438755
6	1337	120	1657.06488044
6	1338	121	1647.302412468
6	1339	122	1637.5558023313
6	1340	123	1627.802840082
6	1341	124	1618.0458399123
6	1435	125	1608.3024582034
6	1436	126	1598.556205418
6	1437	127	1588.8058686676
6	1438	128	1579.0505758533
6	1439	129	1569.2939504329
6	1535	130	1559.5384570928
6	1536	131	1549.8117062496
6	1537	132	1539.8908251487
6	1538	133	1529.97730844
6	1539	134	1520.0621556621
6	1639	135	1510.148714033
6	1640	136	1500.2315806951
6	1641	137	1490.7582227755
6	1642	138	1481.631298393
6	1643	139	1472.5188872153
6	1747	140	1463.3877258636
6	1748	141	1454.2596806409
6	1749	142	1445.4362487132
6	1750	143	1437.3991455361
6	1751	144	1429.3650617478
6	1857	145	1421.3123156717
6	1858	146	1413.2837460814
6	1859	147	1405.9893304855
6	1860	148	1400.0385586601
6	1861	149	1394.0878827618
6	1971	150	1388.1280497564
6	1972	151	1383.3193888851
6	1973	152	1379.0283147534
6	1974	153	1374.730535334
6	1975	154	1371.1843661591
6	2089	155	1369.2529537296
6	2090	156	1366.8609920079
6	2091	157	1364.4897430288
6	2092	158	1362.1344046146
6	2093	159	1359.7019674536
6	2209	160	1357.6082045995
6	2210	161	1355.6782367835
6	2211	162	1354.2162728999
6	2212	163	1352.7558016749
6	2213	164	1351.2944322163
6	2333	165	1349.833008117
6	2334	166	1348.3720574183
6	2335	167	1346.9095693072
6	2336	168	1345.4469914017
6	2337	169	1343.9844014701
6	2461	170	1342.5216562422
6	2462	171	1341.0581734516
6	2463	172	1340.0781881073
6	2464	173	1339.124977109
6	2465	174	1338.047064322
6	2591	175	1336.8551527681
6	2592	176	1335.6657820949
6	2593	177	1334.4758683639
6	2594	178	1333.2851398941
6	2595	179	1332.0941862417
6	2725	180	1330.904267475
6	2726	181	1329.7141627651
6	2727	182	1328.5230190875
6	2728	183	1327.3351474954
6	2729	184	1326.1445175782
6	2863	185	1324.9542882554
6	2864	186	1323.7662845049
6	2865	187	1322.6549000712
6	2866	188	1321.5443578688
6	2867	189	1320.4340367196
6	3003	190	1319.317390793
6	3004	191	1318.3853956163
6	3005	192	1317.6626975602
6	3006	193	1316.6227922775
6	3007	194	1315.0995362792
6	3147	195	1313.2203362444
6	3148	196	1311.3327315385
6	3149	197	1312.6894020094
6	3150	198	1310.0946551049
6	3151	199	1306.9236056563
6	3295	200	1303.7450349918
7	19	5	4.0332649588119
7	20	6	5.8265110515686
7	21	7	7.7852127750962
7	22	8	9.5658873894228
7	23	9	11.450149483434
7	39	10	13.391487500134
7	40	11	13.949883621705
7	41	12	13.87602620427
7	42	13	13.885232782268
7	43	14	13.987373048679
7	63	15	13.890608048609
7	64	16	13.887004709987
7	65	17	13.926980708602
7	66	18	13.89086526999
7	67	19	13.965056618985
7	91	20	13.946692067499
7	92	21	13.097137451398
7	93	22	11.939132677032
7	94	23	7.4783001788439
7	95	24	7.8592269216425
7	121	25	9.5749213322898
7	122	26	11.610942506126
7	123	27	13.581243869506
7	124	28	13.973211987913
7	125	29	13.918392209036
7	155	30	13.928662607018
7	156	31	13.985277111761
7	157	32	13.95532245066
7	158	33	13.938708755139
7	159	34	13.908545650935
7	193	35	13.927478809105
7	194	36	13.897819017794
7	195	37	13.989504252097
7	196	38	13.94374062394
7	197	39	13.903882643976
7	233	40	13.969130632835
7	234	41	13.884234787642
7	235	42	13.881978327318
7	236	43	13.927070145076
7	237	44	13.922745489741
7	277	45	13.95273740395
7	278	46	13.968270483359
7	279	47	13.918685564972
7	280	48	13.921468284922
7	281	49	13.897015957548
7	325	50	13.964752228069
7	326	51	13.91147568828
7	327	52	13.974545761354
7	328	53	13.965476403411
7	329	54	13.989670229855
7	375	55	13.951804798429
7	376	56	13.892850009208
7	377	57	13.958218119799
7	378	58	13.933717581006
7	379	59	13.982012811573
7	429	60	13.954506225567
7	430	61	13.954468280503
7	431	62	13.914126337939
7	432	63	13.998578815588
7	433	64	13.932968401979
7	487	65	13.954534002345
7	488	66	13.998651232829
7	489	67	13.999179182528
7	490	68	13.886099785112
7	491	69	13.881868150404
7	547	70	13.887636745651
7	548	71	13.978686858166
7	549	72	13.970344127666
7	550	73	13.925369204739
7	551	74	13.747533099034
7	611	75	12.059350857216
7	612	76	7.579357994619
7	613	77	7.9201348590508
7	614	78	9.8018296186306
7	615	79	11.775570992293
7	679	80	13.881666231859
7	680	81	13.914205637665
7	681	82	13.944517719341
7	682	83	13.888510530582
7	683	84	13.93060620233
7	749	85	13.96231306632
7	750	86	13.989832558867
7	751	87	13.923362842468
7	752	88	13.975876405358
7	753	89	13.93839835058
7	823	90	13.920164887339
7	824	91	13.966682291413
7	825	92	13.930039903398
7	826	93	13.975413697299
7	827	94	13.895980606813
7	901	95	13.916025194719
7	902	96	13.874023362922
7	903	97	13.903165594626
7	904	98	13.893743275884
7	905	99	13.891417812335
7	981	100	13.984807741477
7	982	101	13.97742042881
7	983	102	13.932330102022
7	984	103	13.918786156045
7	985	104	13.941547459932
7	1065	105	13.993384758611
7	1066	106	13.9334619325
7	1067	107	13.965882125574
7	1068	108	13.882499602956
7	1069	109	13.910075074201
7	1153	110	13.894284862701
7	1154	111	13.913974985913
7	1155	112	13.909866242639
7	1156	113	13.949733157742
7	1157	114	13.94527090376
7	1243	115	13.895503286673
7	1244	116	13.904578788956
7	1245	117	13.976271117451
7	1246	118	13.882062122142
7	1247	119	13.880459246379
7	1337	120	13.958369596377
7	1338	121	13.957029049627
7	1339	122	13.97812181572
7	1340	123	13.918729462416
7	1341	124	13.960079420852
7	1435	125	13.945694425101
7	1436	126	13.927506364956
7	1437	127	13.91480934619
7	1438	128	13.942318648535
7	1439	129	13.873630331701
7	1535	130	13.912855807906
7	1536	131	13.906395649859
7	1537	132	13.981866144668
7	1538	133	13.928634459185
7	1539	134	13.90009441277
7	1639	135	13.90528861128
7	1640	136	13.973518176838
7	1641	137	13.887332082232
7	1642	138	13.946347575046
7	1643	139	13.932372469571
7	1747	140	13.922565494154
7	1748	141	13.941802534193
7	1749	142	13.878409687639
7	1750	143	13.966381310457
7	1751	144	13.973225141107
7	1857	145	13.963794242451
7	1858	146	13.964360508239
7	1859	147	13.942506781972
7	1860	148	13.972165655468
7	1861	149	13.891318765867
7	1971	150	13.956205403581
7	1972	151	13.983408746312
7	1973	152	13.962169502974
7	1974	153	13.920104354369
7	1975	154	13.976492808063
7	2089	155	13.942314518166
7	2090	156	13.976082296416
7	2091	157	13.971373891719
7	2092	158	13.980805757286
7	2093	159	13.940402338933
7	2209	160	13.976282691353
7	2210	161	13.880763591561
7	2211	162	13.883516404654
7	2212	163	13.902039464698
7	2213	164	13.974824944639
7	2333	165	13.982017293202
7	2334	166	13.942421763171
7	2335	167	13.953275428286
7	2336	168	13.932196781875
7	2337	169	13.996582278002
7	2461	170	13.965027879565
7	2462	171	13.959530417712
7	2463	172	13.972671435261
7	2464	173	13.915565973411
7	2465	174	13.975011580326
7	2591	175	13.914833555461
7	2592	176	13.879775854058
7	2593	177	13.944214367676
7	2594	178	13.910662185913
7	2595	179	13.960698127192
7	2725	180	13.925413794534
7	2726	181	13.937814194597
7	2727	182	13.988042107779
7	2728	183	13.889501406359
7	2729	184	13.902104643108
7	2863	185	13.879515518434
7	2864	186	13.926509896715
7	2865	187	13.974079824579
7	2866	188	13.941432711675
7	2867	189	13.962360876054
7	3003	190	13.870577896321
7	3004	191	13.979328471923
7	3005	192	13.918533257053
7	3006	193	13.878299675202
7	3007	194	13.937099912588
7	3147	195	13.888791625502
7	3148	196	13.984574010351
7	3149	197	13.879606535018
7	3150	198	13.973828812069
7	3151	199	13.942100925269
7	3295	200	13.941392528112
8	20	6	1.7932460927567
8	21	7	1.9587017235276
8	22	8	1.7806746143266
8	23	9	1.8842620940111
8	39	10	1.9413380167005
8	40	11	0.5583961215709
8	41	12	-0.073857417434921
8	42	13	0.0092065779981212
8	43	14	0.10214026641101
8	63	15	-0.096765000070445
8	64	16	-0.0036033386224883
8	65	17	0.039975998615846
8	66	18	-0.036115438612178
8	67	19	0.074191348995083
8	91	20	-0.018364551486448
8	92	21	-0.84955461610103
8	93	22	-1.1580047743662
8	94	23	-4.4608324981877
8	95	24	0.38092674279862
8	121	25	1.7156944106473
8	122	26	2.0360211738362
8	123	27	1.9703013633797
8	124	28	0.39196811840698
8	125	29	-0.054819778876846
8	155	30	0.010270397982096
8	156	31	0.056614504742901
8	157	32	-0.029954661100637
8	158	33	-0.016613695521373
8	159	34	-0.030163104203529
8	193	35	0.018933158169965
8	194	36	-0.029659791311714
8	195	37	0.091685234303586
8	196	38	-0.045763628156855
8	197	39	-0.039857979963999
8	233	40	0.065247988859191
8	234	41	-0.08489584519295
8	235	42	-0.0022564603248618
8	236	43	0.045091817758511
8	237	44	-0.0043246553349299
8	277	45	0.029991914208512
8	278	46	0.015533079409506
8	279	47	-0.0495849183877
8	280	48	0.0027827199501917
8	281	49	-0.024452327373437
8	325	50	0.067736270520836
8	326	51	-0.053276539789513
8	327	52	0.063070073074195
8	328	53	-0.0090693579427903
8	329	54	0.024193826443517
8	375	55	-0.037865431425162
8	376	56	-0.058954789221753
8	377	57	0.065368110591081
8	378	58	-0.024500538792926
8	379	59	0.048295230567454
8	429	60	-0.027506586005911
8	430	61	-3.7945064249811e-05
8	431	62	-0.040341942564119
8	432	63	0.08445247764932
8	433	64	-0.065610413609539
8	487	65	0.021565600365866
8	488	66	0.044117230484263
8	489	67	0.0005279496987356
8	490	68	-0.11307939741528
8	491	69	-0.0042316347081215
8	547	70	0.0057685952470639
8	548	71	0.091050112515221
8	549	72	-0.0083427305007344
8	550	73	-0.044974922926631
8	551	74	-0.17783610570538
8	611	75	-1.6881822418173
8	612	76	-4.4799928625974
8	613	77	0.34077686443175
8	614	78	1.8816947595798
8	615	79	1.9737413736619
8	679	80	2.1060952395666
8	680	81	0.032539405805839
8	681	82	0.030312081675511
8	682	83	-0.056007188758812
8	683	84	0.042095671747811
8	749	85	0.031706863990985
8	750	86	0.027519492546562
8	751	87	-0.066469716399443
8	752	88	0.052513562890235
8	753	89	-0.037478054778184
8	823	90	-0.018233463240321
8	824	91	0.046517404073382
8	825	92	-0.036642388014588
8	826	93	0.045373793900945
8	827	94	-0.079433090486564
8	901	95	0.020044587906449
8	902	96	-0.04200183179695
8	903	97	0.029142231703736
8	904	98	-0.0094223187421445
8	905	99	-0.0023254635487682
8	981	100	0.093389929141848
8	982	101	-0.0073873126669781
8	983	102	-0.045090326787903
8	984	103	-0.013543945976998
8	985	104	0.022761303887236
8	1065	105	0.051837298679166
8	1066	106	-0.059922826110851
8	1067	107	0.032420193073339
8	1068	108	-0.083382522617466
8	1069	109	0.027575471245218
8	1153	110	-0.015790211500134
8	1154	111	0.019690123212058
8	1155	112	-0.0041087432741183
8	1156	113	0.039866915103048
8	1157	114	-0.0044622539822008
8	1243	115	-0.049767617087346
8	1244	116	0.0090755022829399
8	1245	117	0.071692328494974
8	1246	118	-0.094208995308728
8	1247	119	-0.0016028757626181
8	1337	120	0.077910349997691
8	1338	121	-0.0013405467499972
8	1339	122	0.021092766092623
8	1340	123	-0.059392353303265
8	1341	124	0.041349958435168
8	1435	125	-0.014384995750152
8	1436	126	-0.018188060144894
8	1437	127	-0.012697018766776
8	1438	128	0.027509302345571
8	1439	129	-0.068688316834161
8	1535	130	0.039225476204884
8	1536	131	-0.0064601580472665
8	1537	132	0.075470494809561
8	1538	133	-0.053231685482897
8	1539	134	-0.028540046415291
8	1639	135	0.0051941985101429
8	1640	136	0.068229565557559
8	1641	137	-0.086186094605365
8	1642	138	0.059015492813197
8	1643	139	-0.013975105474238
8	1747	140	-0.0098069754173054
8	1748	141	0.019237040039153
8	1749	142	-0.063392846554052
8	1750	143	0.087971622818149
8	1751	144	0.0068438306497409
8	1857	145	-0.0094308986561362
8	1858	146	0.00056626578792951
8	1859	147	-0.021853726266418
8	1860	148	0.029658873495645
8	1861	149	-0.080846889601089
8	1971	150	0.064886637714226
8	1972	151	0.027203342730646
8	1973	152	-0.02123924333835
8	1974	153	-0.042065148605035
8	1975	154	0.056388453694527
8	2089	155	-0.034178289896809
8	2090	156	0.033767778249457
8	2091	157	-0.0047084046970109
8	2092	158	0.0094318655668744
8	2093	159	-0.04040341835236
8	2209	160	0.035880352419335
8	2210	161	-0.095519099792
8	2211	162	0.0027528130938297
8	2212	163	0.018523060043808
8	2213	164	0.07278547994094
8	2333	165	0.0071923485631125
8	2334	166	-0.039595530030784
8	2335	167	0.010853665114846
8	2336	168	-0.021078646411189
8	2337	169	0.064385496126489
8	2461	170	-0.031554398436565
8	2462	171	-0.0054974618530839
8	2463	172	0.013141017549206
8	2464	173	-0.057105461850297
8	2465	174	0.059445606914815
8	2591	175	-0.060178024864291
8	2592	176	-0.035057701403275
8	2593	177	0.064438513617498
8	2594	178	-0.033552181762644
8	2595	179	0.050035941279495
8	2725	180	-0.03528433265863
8	2726	181	0.012400400063488
8	2727	182	0.050227913181299
8	2728	183	-0.098540701419116
8	2729	184	0.012603236748838
8	2863	185	-0.022589124673978
8	2864	186	0.04699437828036
8	2865	187	0.047569927864243
8	2866	188	-0.032647112903652
8	2867	189	0.020928164378274
8	3003	190	-0.091782979732379
8	3004	191	0.10875057560159
8	3005	192	-0.060795214870012
8	3006	193	-0.040233581850771
8	3007	194	0.058800237386022
8	3147	195	-0.048308287085966
8	3148	196	0.095782384849153
8	3149	197	-0.10496747533325
8	3150	198	0.094222277051303
8	3151	199	-0.031727886800654
8	3295	200	-0.00070839715655779
9	20	6	3.9274001426868
9	21	7	5.2041356246368
9	22	8	5.7574507674447
9	23	9	7.0006276784153
9	39	10	8.2432295261252
9	40	11	3.9110016848773
9	41	12	1.7792042638201
9	42	13	2.0579365757541
9	43	14	2.3818636967155
9	63	15	1.7037407999188
9	64	16	2.0152488537881
9	65	17	2.1655550639215
9	66	18	1.906797412239
9	67	19	2.2849654495652
9	91	20	1.9716653983805
9	92	21	0.973
9	93	22	0.973
9	94	23	0.973
9	95	24	2.2554772362628
9	121	25	5.6120472675651
9	122	26	7.5119842129131
9	123	27	8.4455276517466
9	124	28	3.3560730035355
9	125	29	1.8466200733259
9	155	30	2.0660268329645
9	156	31	2.2281549844786
9	157	32	1.9335288120447
9	158	33	1.9767670407741
9	159	34	1.9283950769156
9	193	35	2.0949799016024
9	194	36	1.9290667558988
9	195	37	2.3468857079218
9	196	38	1.8793040227889
9	197	39	1.8954681876561
9	233	40	2.2553467174174
9	234	41	1.7429567241042
9	235	42	2.0192482635441
9	236	43	2.1827359052182
9	237	44	2.0164367628106
9	277	45	2.1348602115454
9	278	46	2.0878872407227
9	279	47	1.8642059318509
9	280	48	2.0401536442479
9	281	49	1.9464315106901
9	325	50	2.2632042711189
9	326	51	1.851180617826
9	327	52	2.2486511283506
9	328	53	2.0047870143605
9	329	54	2.1193583924862
9	375	55	1.9065956504161
9	376	56	1.8305118457369
9	377	57	2.2544630998412
9	378	58	1.9497933768092
9	379	59	2.199742909699
9	429	60	1.9416842431598
9	430	61	2.0340583936544
9	431	62	1.8947902862501
9	432	63	2.3236156337703
9	433	64	1.8116807487081
9	487	65	2.1067187558746
9	488	66	2.1875465210812
9	489	67	2.0405446651404
9	490	68	1.6487905152147
9	491	69	2.0126291187762
9	547	70	2.0466796925005
9	548	71	2.3433989621326
9	549	72	2.0077208397811
9	550	73	1.8802787050508
9	551	74	1.4240020986803
9	611	75	0.973
9	612	76	0.973
9	613	77	2.18842153134
9	614	78	6.1148516242895
9	615	79	7.4301998034681
9	679	80	9.0726684480708
9	680	81	2.13919233797
9	681	82	2.1350370330868
9	682	83	1.8399981216727
9	683	84	2.173076148691
9	749	85	2.1416790063363
9	750	86	2.1305886227155
9	751	87	1.8079694223127
9	752	88	2.2132512754183
9	753	89	1.9066500006632
9	823	90	1.9695156486718
9	824	91	2.1920111333792
9	825	92	1.908677970281
9	826	93	2.1891507767845
9	827	94	1.7622054562569
9	901	95	2.0974873772285
9	902	96	1.8855500369507
9	903	97	2.1265985206215
9	904	98	1.996444163955
9	905	99	2.0199719555639
9	981	100	2.3520461315502
9	982	101	2.0116492969017
9	983	102	1.8805258333239
9	984	103	1.9851118107104
9	985	104	2.1093420628985
9	1065	105	2.2129857683168
9	1066	106	1.8308220216017
9	1067	107	2.1444722311404
9	1068	108	1.7478789279806
9	1069	109	2.1220983905492
9	1153	110	1.9751750017376
9	1154	111	2.0960799393481
9	1155	112	2.0158614428142
9	1156	113	2.167730143919
9	1157	114	2.0182495144689
9	1243	115	1.8615102457608
9	1244	116	2.0595086505496
9	1245	117	2.2778961570708
9	1246	118	1.7116224519727
9	1247	119	2.0212810537559
9	1337	120	2.2966726528457
9	1338	121	2.0299386333182
9	1339	122	2.1076614811557
9	1340	123	1.8313116867079
9	1341	124	2.1738765557413
9	1435	125	1.9849428506079
9	1436	126	1.9703843909176
9	1437	127	1.9875596387324
9	1438	128	2.1253787825235
9	1439	129	1.7962866284485
9	1535	130	2.16146260098
9	1536	131	2.0076307769727
9	1537	132	2.2912967597894
9	1538	133	1.8528600408083
9	1539	134	1.9330331343468
9	1639	135	2.0465755532814
9	1640	136	2.2659055273814
9	1641	137	1.7388900071776
9	1642	138	2.231711462374
9	1643	139	1.9850053294315
9	1747	140	1.9980235595548
9	1748	141	2.0975280706569
9	1749	142	1.8144048409385
9	1750	143	2.3315076366531
9	1751	144	2.0591513526739
9	1857	145	2.0034019480372
9	1858	146	2.0371031448992
9	1859	147	1.9595323495884
9	1860	148	2.1358660794021
9	1861	149	1.7570872917791
9	1971	150	2.2526062298388
9	1972	151	2.1288224415809
9	1973	152	1.9635057791053
9	1974	153	1.8895605130103
9	1975	154	2.2263741095757
9	2089	155	1.9181019904679
9	2090	156	2.1501347351665
9	2091	157	2.020061290509
9	2092	158	2.0686600217378
9	2093	159	1.8970083269034
9	2209	160	2.1572726312895
9	2210	161	1.7071373030442
9	2211	162	2.0361644423435
9	2212	163	2.090897582556
9	2213	164	2.2814047873754
9	2333	165	2.0612404299833
9	2334	166	1.8999094614842
9	2335	167	2.0705621398081
9	2336	168	1.9611367237514
9	2337	169	2.2556808060981
9	2461	170	1.9290670990496
9	2462	171	2.0162086654076
9	2463	172	2.0802990023013
9	2464	173	1.8387039884822
9	2465	174	2.2364987699595
9	2591	175	1.8283356700218
9	2592	176	1.9093046019252
9	2593	177	2.2496876104686
9	2594	178	1.9172335011079
9	2595	179	2.2031702198692
9	2725	180	1.9128046296068
9	2726	181	2.0741380357498
9	2727	182	2.206946044161
9	2728	183	1.6977101226333
9	2729	184	2.0710706900758
9	2863	185	1.9509872746757
9	2864	186	2.1890582187141
9	2865	187	2.1963956888293
9	2866	188	1.9231637928399
9	2867	189	2.1054147024235
9	3003	190	1.7188260663154
9	3004	191	2.4031119214083
9	3005	192	1.8265887841823
9	3006	193	1.8918554453362
9	3007	194	2.2299126707655
9	3147	195	1.8657926686676
9	3148	196	2.360080178753
9	3149	197	1.6754416673451
9	3150	198	2.3534778961154
9	3151	199	1.9263154075013
9	3295	200	2.0304701177662
10	21	7	2414.8848622198
10	22	8	2412.0691307599
10	23	9	2407.3819784434
10	39	10	2402.4639103656
10	40	11	2396.2016479742
10	41	12	2388.5021761758
10	42	13	2379.5347220144
10	43	14	2369.7521497252
10	63	15	2359.9648396304
10	64	16	2350.1637192596
10	65	17	2340.717056727
10	66	18	2334.4889366638
10	67	19	2338.0188398167
10	91	20	2348.6970945761
10	92	21	2359.0578910074
10	93	22	2372.1753142256
10	94	23	2385.9847009928
10	95	24	2399.0560799135
10	121	25	2411.469456295
10	122	26	2420.8240344936
10	123	27	2428.2511095385
10	124	28	2431.5096723901
10	125	29	2433.2168502312
10	155	30	2435.2011956087
10	156	31	2437.29147981
10	157	32	2438.672857787
10	158	33	2439.5458305131
10	159	34	2440.5569901068
10	193	35	2441.5662171456
10	194	36	2442.5764760413
10	195	37	2443.5864360537
10	196	38	2444.5969193554
10	197	39	2445.6077267987
10	233	40	2446.6171177449
10	234	41	2447.6285385494
10	235	42	2448.6389437378
10	236	43	2449.6489775468
10	237	44	2450.659299592
10	277	45	2449.5461587089
10	278	46	2448.4337074455
10	279	47	2447.3207898499
10	280	48	2446.207873206
10	281	49	2445.0940501215
10	325	50	2443.9833638043
10	326	51	2442.8694501355
10	327	52	2441.7571938549
10	328	53	2440.6460889142
10	329	54	2439.6827321647
10	375	55	2438.7413750661
10	376	56	2437.8192072627
10	377	57	2432.6325302194
10	378	58	2422.106233715
10	379	59	2408.9688818519
10	429	60	2395.0345910933
10	430	61	2381.126587261
10	431	62	2367.2179763186
10	432	63	2353.2984252305
10	433	64	2339.3434596916
10	487	65	2325.3984135713
10	488	66	2311.4586331139
10	489	67	2297.5367558505
10	490	68	2283.6070172336
10	491	69	2269.6839314153
10	547	70	2255.7643697551
10	548	71	2241.8757564033
10	549	72	2228.0688688542
10	550	73	2214.3596332766
10	551	74	2201.1697082877
10	611	75	2187.9812217543
10	612	76	2175.1013606713
10	613	77	2163.8486040375
10	614	78	2153.0948860173
10	615	79	2145.0849157491
10	679	80	2138.8946003525
10	680	81	2132.2011933201
10	681	82	2124.3366035071
10	682	83	2115.0872609993
10	683	84	2105.5538705919
10	749	85	2096.0252697853
10	750	86	2086.4967494794
10	751	87	2076.9751311409
10	752	88	2067.4538868368
10	753	89	2057.9325940701
10	823	90	2048.4066834121
10	824	91	2038.4296391971
10	825	92	2028.437630447
10	826	93	2018.4419594824
10	827	94	2008.4459683101
10	901	95	1998.4508679055
10	902	96	1988.4571368236
10	903	97	1978.4704595547
10	904	98	1968.4740159718
10	905	99	1958.4785231162
10	981	100	1948.4884089829
10	982	101	1938.4816994871
10	983	102	1928.7322203254
10	984	103	1918.9981110839
10	985	104	1909.2535013134
10	1065	105	1899.529902406
10	1066	106	1889.8053424588
10	1067	107	1880.0682282229
10	1068	108	1870.3252917174
10	1069	109	1860.596198754
10	1153	110	1850.8521214382
10	1154	111	1841.124890383
10	1155	112	1831.1967682927
10	1156	113	1821.0880415918
10	1157	114	1810.9727998854
10	1243	115	1800.993982
10	1244	116	1791.0380973037
10	1245	117	1781.0686357906
10	1246	118	1771.1005419167
10	1247	119	1761.144274739
10	1337	120	1751.1798136998
10	1338	121	1741.2273984592
10	1339	122	1731.2560122574
10	1340	123	1721.3130651192
10	1341	124	1711.3606388163
10	1435	125	1701.4132238724
10	1436	126	1691.4695500832
10	1437	127	1681.5100947762
10	1438	128	1671.5499762493
10	1439	129	1661.596371101
10	1535	130	1651.638227411
10	1536	131	1641.6845117584
10	1537	132	1631.7210541732
10	1538	133	1621.7672202316
10	1539	134	1611.962042933
10	1639	135	1602.1526814265
10	1640	136	1592.3420984227
10	1641	137	1582.5244320999
10	1642	138	1572.6977201649
10	1643	139	1562.8788975599
10	1747	140	1552.520917683
10	1748	141	1541.9874118419
10	1749	142	1531.4405609783
10	1750	143	1520.8920624781
10	1751	144	1510.3294738784
10	1857	145	1499.3740882825
10	1858	146	1487.9598831028
10	1859	147	1476.570520974
10	1860	148	1465.1583736329
10	1861	149	1453.7619018427
10	1971	150	1441.6974959705
10	1972	151	1429.0609321011
10	1973	152	1416.4438009249
10	1974	153	1403.8131462371
[...]
286	2465	174	1581.6213211548
286	2591	175	1586.7212988809
286	2592	176	1593.1817847406
286	2593	177	1600.9791289521
286	2594	178	1609.6696703974
286	2595	179	1617.9803170767
286	2725	180	1625.8604781218
286	2726	181	1633.4487438379
286	2727	182	1640.7969273981
286	2728	183	1648.1491819369
286	2729	184	1655.9723236719
286	2863	185	1665.5415014364
286	2864	186	1673.7662134431
286	2865	187	1679.8201536043
286	2866	188	1686.2411960671
286	2867	189	1692.6152466787
286	3003	190	1695.0952993594
286	3004	191	1696.4712471422
286	3005	192	1697.5744966213
286	3006	193	1698.4666598802
286	3007	194	1699.3402099321
286	3147	195	1700.0784419151
286	3148	196	1700.8401520289
286	3149	197	1701.8111501895
286	3150	198	1710.7064254163
286	3151	199	1722.0436349092
286	3295	200	1734.1554267453
287	2464	173	4.1722982974219
287	2465	174	6.050894032536
287	2591	175	8.0941174606475
287	2592	176	9.9043262539114
287	2593	177	11.739932488888
287	2594	178	12.063107383124
287	2595	179	11.451604581323
287	2725	180	10.807792567365
287	2726	181	10.456727610217
287	2727	182	10.177739571168
287	2728	183	10.027778008407
287	2729	184	9.8660203747192
287	2863	185	9.7325289176456
287	2864	186	9.6895184191502
287	2865	187	9.5708557140312
287	2866	188	9.5956894040654
287	2867	189	9.4541393154406
287	3003	190	9.5219343935392
287	3004	191	9.4845061893479
287	3005	192	9.4308404477271
287	3006	193	9.5349710994417
287	3007	194	8.513128069389
287	3147	195	8.2050404684125
287	3148	196	6.7199954533496
287	3149	197	8.4244473397349
287	3150	198	10.447882172956
287	3151	199	12.342475581385
287	3295	200	12.119635387739
288	2465	174	1.8785957351141
288	2591	175	2.0432234281115
288	2592	176	1.8102087932639
288	2593	177	1.835606234977
288	2594	178	0.32317489423551
288	2595	179	-0.61150280180069
288	2725	180	-0.643812013958
288	2726	181	-0.35106495714859
288	2727	182	-0.27898803904832
288	2728	183	-0.14996156276111
288	2729	184	-0.16175763368804
288	2863	185	-0.13349145707354
288	2864	186	-0.043010498495448
288	2865	187	-0.11866270511896
288	2866	188	0.024833690034201
288	2867	189	-0.14155008862477
288	3003	190	0.067795078098566
288	3004	191	-0.037428204191331
288	3005	192	-0.053665741620767
288	3006	193	0.10413065171455
288	3007	194	-1.0218430300526
288	3147	195	-0.30808760097649
288	3148	196	-1.4850450150629
288	3149	197	1.7044518863852
288	3150	198	2.0234348332207
288	3151	199	1.8945934084291
288	3295	200	-0.2228401936457
289	2465	174	4.1618523283488
289	2591	175	5.5351270590395
289	2592	176	5.9984019279033
289	2593	177	7.0193339422111
289	2594	178	2.7936236636263
289	2595	179	0.973
289	2725	180	0.973
289	2726	181	0.973
289	2727	182	0.973
289	2728	183	1.3244795779926
289	2729	184	1.2900392714646
289	2863	185	1.3515504879559
289	2864	186	1.561024062663
289	2865	187	1.3789823116108
289	2866	188	1.7119463571957
289	2867	189	1.3216150467812
289	3003	190	1.8046665478142
289	3004	191	1.5607969115149
289	3005	192	1.5204566136091
289	3006	193	1.8893329982686
289	3007	194	0.973
289	3147	195	0.973
289	3148	196	0.973
289	3149	197	5.032162829505
289	3150	198	6.8142481056228
289	3151	199	7.514630368849
289	3295	200	1.2082252457634
290	2591	175	2414.8887947192
290	2592	176	2411.839309744
290	2593	177	2407.1483131133
290	2594	178	2402.1055246805
290	2595	179	2395.7036317975
290	2725	180	2387.9536180414
290	2726	181	2378.9356486216
290	2727	182	2369.7263681659
290	2728	183	2360.5372305254
290	2729	184	2351.4839329404
290	2863	185	2342.9731922124
290	2864	186	2335.9011286141
290	2865	187	2333.8668947089
290	2866	188	2339.2133343287
290	2867	189	2347.1266310998
290	3003	190	2354.6101810113
290	3004	191	2362.2337839626
290	3005	192	2371.9220789619
290	3006	193	2381.5331480468
290	3007	194	2391.0495093261
290	3147	195	2399.4641958358
290	3148	196	2407.9768118039
290	3149	197	2415.6391657201
290	3150	198	2423.1758041829
290	3151	199	2430.2576090321
290	3295	200	2431.8969892923
291	2591	175	1578.4462487241
291	2592	176	1579.5660036923
291	2593	177	1581.567239346
291	2594	178	1586.6748893065
291	2595	179	1593.1591248373
291	2725	180	1601.0088210888
291	2726	181	1610.1427817466
291	2727	182	1619.4705141289
291	2728	183	1628.7778446134
291	2729	184	1637.9475878356
291	2863	185	1646.5883259233
291	2864	186	1655.6416680394
291	2865	187	1666.3156582909
291	2866	188	1674.8092562454
291	2867	189	1681.3794476818
291	3003	190	1688.128300434
291	3004	191	1694.1579702115
291	3005	192	1695.6060643354
291	3006	193	1696.907643551
291	3007	194	1697.9292409215
291	3147	195	1698.7249057228
291	3148	196	1699.5298304092
291	3149	197	1700.2543571405
291	3150	198	1700.929400688
291	3151	199	1702.9323976086
291	3295	200	1712.3058236064
292	2592	176	4.1406812462363
292	2593	177	6.0654450932554
292	2594	178	8.1474102431548
292	2595	179	9.9105920719601
292	2725	180	11.990486721428
292	2726	181	13.100831135974
292	2727	182	13.077337078374
292	2728	183	13.110146855266
292	2729	184	12.647587796033
292	2863	185	11.861903611965
292	2864	186	11.251897054644
292	2865	187	10.762691580144
292	2866	188	10.395253332004
292	2867	189	10.160463306642
292	3003	190	9.9540118201559
292	3004	191	9.8153674444805
292	3005	192	9.8322627851496
292	3006	193	9.6675917660903
292	3007	194	9.1860302827041
292	3147	195	8.538748745271
292	3148	196	7.8361588239862
292	3149	197	8.2769016329682
292	3150	198	6.4128719780114
292	3151	199	8.5128838561251
292	3295	200	10.41409016199
293	2593	177	1.9247638470191
293	2594	178	2.0819651498995
293	2595	179	1.7631818288052
293	2725	180	2.0798946494679
293	2726	181	1.1103444145459
293	2727	182	-0.023494057599454
293	2728	183	0.032809776891954
293	2729	184	-0.46255905923375
293	2863	185	-0.78568418406799
293	2864	186	-0.6100065573202
293	2865	187	-0.48920547450007
293	2866	188	-0.3674382481402
293	2867	189	-0.23479002536233
293	3003	190	-0.20645148648593
293	3004	191	-0.13864437567543
293	3005	192	0.016895340669127
293	3006	193	-0.16467101905931
293	3007	194	-0.48156148338618
293	3147	195	-0.64728153743317
293	3148	196	-0.70258992128472
293	3149	197	0.440742808982
293	3150	198	-1.8640296549568
293	3151	199	2.1000118781137
293	3295	200	1.9012063058652
294	2593	177	4.2367774106375
294	2594	178	5.6409845367817
294	2595	179	5.889286488747
294	2725	180	7.857959183656
294	2726	181	5.455390510904
294	2727	182	1.8734061273251
294	2728	183	2.0542565448375
294	2729	184	0.973
294	2863	185	0.973
294	2864	186	0.973
294	2865	187	0.973
294	2866	188	0.973
294	2867	189	0.973
294	3003	190	0.973
294	3004	191	1.3428854896751
294	3005	192	1.7121509449673
294	3006	193	1.276168789136
294	3007	194	0.973
294	3147	195	0.973
294	3148	196	0.973
294	3149	197	2.4408233658062
294	3150	198	0.973
294	3151	199	5.8860469519308
294	3295	200	6.4883517788443
295	2594	178	2414.8411606834
295	2595	179	2411.8212945821
295	2725	180	2407.2340216642
295	2726	181	2402.4078865714
295	2727	182	2396.1670496335
295	2728	183	2388.4829322497
295	2729	184	2379.706800545
295	2863	185	2370.8227059451
295	2864	186	2361.9707496609
295	2865	187	2353.1122649581
295	2866	188	2344.2440478104
295	2867	189	2336.3270312872
295	3003	190	2333.8656889133
295	3004	191	2341.5537264398
295	3005	192	2351.0957992487
295	3006	193	2360.1357969744
295	3007	194	2371.1998982439
295	3147	195	2381.4100486664
295	3148	196	2391.22411761
295	3149	197	2400.0390379536
295	3150	198	2408.6151909702
295	3151	199	2416.695666706
295	3295	200	2424.0129334686
296	2594	178	1578.4637396941
296	2595	179	1579.5726187658
296	2725	180	1581.4804283911
296	2726	181	1586.3686383655
296	2727	182	1592.6897464124
296	2728	183	1600.4726987174
296	2729	184	1609.3617110867
296	2863	185	1618.3600749951
296	2864	186	1627.3258872181
296	2865	187	1636.2983118296
296	2866	188	1645.2805940667
296	2867	189	1655.0964463288
296	3003	190	1667.2697982499
296	3004	191	1676.6992636202
296	3005	192	1684.9589429349
296	3006	193	1693.1114393109
296	3007	194	1695.4981211266
296	3147	195	1696.8929919777
296	3148	196	1697.9457513001
296	3149	197	1698.779260884
296	3150	198	1699.5901934225
296	3151	199	1700.3542563636
296	3295	200	1700.9778758809
297	2595	179	4.0301020879068
297	2725	180	5.7866659510231
297	2726	181	7.8106567098528
297	2727	182	9.7852737790208
297	2728	183	11.771192707108
297	2729	184	12.646955651697
297	2863	185	12.691492472105
297	2864	186	12.65436932687
297	2865	187	12.633675903024
297	2866	188	12.599634996388
297	2867	189	12.659472650269
297	3003	190	12.658417382807
297	3004	191	12.63769881008
297	3005	192	12.619262327083
297	3006	193	11.837715175372
297	3007	194	11.233216247756
297	3147	195	9.9345041922402
297	3148	196	9.3495239572453
297	3149	197	8.9684797011565
297	3150	198	7.501503034058
297	3151	199	8.5999985581018
297	3295	200	6.5814874873665
298	2725	180	1.7565638631163
298	2726	181	2.0239907588297
298	2727	182	1.974617069168
298	2728	183	1.9859189280868
298	2729	184	0.87576294458965
298	2863	185	0.044536820407956
298	2864	186	-0.037123145235237
298	2865	187	-0.020693423845804
298	2866	188	-0.034040906636511
298	2867	189	0.059837653881406
298	3003	190	-0.0010552674625082
298	3004	191	-0.020718572726473
298	3005	192	-0.01843648299673
298	3006	193	-0.78154715171109
298	3007	194	-0.60449892761642
298	3147	195	-1.2987120555156
298	3148	196	-0.58498023499497
298	3149	197	-0.38104425608877
298	3150	198	-1.4669766670985
298	3151	199	1.0984955240438
298	3295	200	-2.0185110707353
299	2725	180	3.8567292070852
299	2726	181	5.3407005675328
299	2727	182	6.3252391424865
299	2728	183	7.4622837645495
299	2729	184	4.5762074728406
299	2863	185	2.0473074295133
299	2864	186	1.7944271933776
299	2865	187	1.8427210667168
299	2866	188	1.7992172049887
299	2867	189	2.0906751831929
299	3003	190	1.9047974625166
299	3004	191	1.8429964782652
299	3005	192	1.8483247028866
299	3006	193	0.973
299	3007	194	0.973
299	3147	195	0.973
299	3148	196	0.973
299	3149	197	0.973
299	3150	198	0.973
299	3151	199	3.8603634831942
299	3295	200	0.973
300	2726	181	2414.8779380508
300	2727	182	2411.9970329538
300	2728	183	2407.4862191244
300	2729	184	2402.5944783367
300	2863	185	2396.3107487656
300	2864	186	2388.7262865513
300	2865	187	2380.8504155858
300	2866	188	2372.9843149764
300	2867	189	2365.0945059197
300	3003	190	2357.2114851256
300	3004	191	2349.3247325944
300	3005	192	2341.6477208548
300	3006	193	2335.177532454
300	3007	194	2334.0491336513
300	3147	195	2341.3449303098
300	3148	196	2349.8577622982
300	3149	197	2358.1854712832
300	3150	198	2368.3077342936
300	3151	199	2379.4005401043
300	3295	200	2390.5462740177
301	2726	181	1578.4502352364
301	2727	182	1579.5080885524
301	2728	183	1581.2249871083
301	2729	184	1586.1796466131
301	2863	185	1592.5441989889
301	2864	186	1600.2262143353
301	2865	187	1608.2033866011
301	2866	188	1616.1706628418
301	2867	189	1624.1619524732
301	3003	190	1632.1463665301
301	3004	191	1640.1345603233
301	3005	192	1648.2851355597
301	3006	193	1657.3384426096
301	3007	194	1668.4333620165
301	3147	195	1676.5306481887
301	3148	196	1683.8424502034
301	3149	197	1691.3525867518
301	3150	198	1695.0658339569
301	3151	199	1696.6538156131
301	3295	200	1697.8816566626
302	2727	182	3.8568705508995
302	2728	183	5.7107599186359
302	2729	184	7.8633960219004
302	2863	185	9.8373710972068
302	2864	186	11.236298415992
302	2865	187	11.218727136085
302	2866	188	11.165747769568
302	2867	189	11.275574481318
302	3003	190	11.176221124339
302	3004	191	11.209788830762
302	3005	192	11.23493280611
302	3006	193	11.244871398192
302	3007	194	11.147921455172
302	3147	195	11.14770664535
302	3148	196	11.229630027414
302	3149	197	11.168538895028
302	3150	198	11.160851498912
302	3151	199	11.20410871885
302	3295	200	11.150661244951
303	2728	183	1.8538893677364
303	2729	184	2.1526361032645
303	2863	185	1.9739750753064
303	2864	186	1.3989273187849
303	2865	187	-0.017571279907132
303	2866	188	-0.052979366516229
303	2867	189	0.10982671174919
303	3003	190	-0.099353356978391
303	3004	191	0.033567706423346
303	3005	192	0.025143975347746
303	3006	193	0.0099385920818893
303	3007	194	-0.096949943020007
303	3147	195	-0.00021480982191946
303	3148	196	0.081923382063396
303	3149	197	-0.06109113238519
303	3150	198	-0.0076873961160882
303	3151	199	0.043257219938095
303	3295	200	-0.053447473898995
304	2728	183	3.954187267393
304	2729	184	5.6136607088567
304	2863	185	6.3524123290938
304	2864	186	5.5713130043435
304	2865	187	1.7341214897485
304	2866	188	1.6346696674767
304	2867	189	2.0848090125448
304	3003	190	1.5104964706997
304	3004	191	1.8715716279651
304	3005	192	1.8510573306451
304	3006	193	1.8107381632415
304	3007	194	1.5152888775727
304	3147	195	1.7751644837531
304	3148	196	2.0042484083265
304	3149	197	1.6130313624749
304	3150	198	1.7561516530675
304	3151	199	1.8972174891183
304	3295	200	1.6323560080669
305	2729	184	2414.8788141906
305	2863	185	2412.0652779912
305	2864	186	2407.551033954
305	2865	187	2402.8081792406
305	2866	188	2396.7116066761
305	2867	189	2389.3548582763
305	3003	190	2380.744486539
305	3004	191	2371.7330126754
305	3005	192	2362.7249511016
305	3006	193	2353.713147666
305	3007	194	2344.6833110899
305	3147	195	2336.5824422954
305	3148	196	2333.8309977797
305	3149	197	2341.5042295394
305	3150	198	2351.0569959413
305	3151	199	2360.1778278147
305	3295	200	2371.7698126348
306	2729	184	1578.4499135222
306	2863	185	1579.4830293311
306	2864	186	1581.1593386149
306	2865	187	1585.9631970385
306	2866	188	1592.13818515
306	2867	189	1599.5895577734
306	3003	190	1608.3106781319
306	3004	191	1617.4380596867
306	3005	192	1626.5619850615
306	3006	193	1635.6897004275
306	3007	194	1644.8356808797
306	3147	195	1654.7694804864
306	3148	196	1667.0497573456
306	3149	197	1676.659291896
306	3150	198	1684.9239491401
306	3151	199	1693.1493437756
306	3295	200	1695.5833053291
307	2863	185	3.7541588574195
307	2864	186	5.7118946708985
307	2865	187	7.5933595718689
307	2866	188	9.6098677490083
307	2867	189	11.185632338146
307	3003	190	12.828064661029
307	3004	191	12.858428171399
307	3005	192	12.773671595888
307	3006	193	12.883004034611
307	3007	194	12.869395815994
307	3147	195	12.818268577999
307	3148	196	12.806688598868
307	3149	197	12.814241240225
307	3150	198	12.428568390577
307	3151	199	12.193319340593
307	3295	200	11.921261282808
308	2864	186	1.9577358134789
308	2865	187	1.8814649009705
308	2866	188	2.0165081771393
308	2867	189	1.5757645891374
308	3003	190	1.6424323228832
308	3004	191	0.030363510369789
308	3005	192	-0.084756575510838
308	3006	193	0.10933243872365
308	3007	194	-0.013608218617739
308	3147	195	-0.051127237994223
308	3148	196	-0.01157997913193
308	3149	197	0.0075526413577602
308	3150	198	-0.38567284964841
308	3151	199	-0.23524904998366
308	3295	200	-0.27205805778502
309	2864	186	4.0977108093026
309	2865	187	4.9598296968464
309	2866	188	6.3257520636553
309	2867	189	6.0267292681764
309	3003	190	7.0015194515765
309	3004	191	2.0207811610832
309	3005	192	1.657822167393
309	3006	193	2.2684578372911
309	3007	194	1.885514090343
309	3147	195	1.7649741148387
309	3148	196	1.8860904866543
309	3149	197	1.9458632185771
309	3150	198	0.973
309	3151	199	1.174375813081
309	3295	200	0.973
310	2865	187	2414.8585700947
310	2866	188	2411.9969703056
310	2867	189	2407.3590078291
310	3003	190	2402.5038493358
310	3004	191	2396.2110340785
310	3005	192	2388.5356686392
310	3006	193	2379.5098477243
310	3007	194	2370.1418326314
310	3147	195	2360.7787300163
310	3148	196	2351.4193250611
310	3149	197	2342.1844435789
310	3150	198	2334.9812863778
310	3151	199	2335.3851237283
310	3295	200	2345.5761305641
311	2865	187	1578.4573470484
311	2866	188	1579.508111557
311	2867	189	1581.3538346253
311	3003	190	1586.271441306
311	3004	191	1592.6451962292
311	3005	192	1600.4192840196
311	3006	193	1609.5611971607
311	3007	194	1619.0497058611
311	3147	195	1628.533238899
311	3148	196	1638.0130267162
311	3149	197	1647.5980469361
311	3150	198	1658.5203126362
311	3151	199	1671.4201332461
311	3295	200	1679.9811674627
312	2866	188	3.8585680350128
312	2867	189	5.8516531472004
312	3003	190	7.8973758989761
312	3004	191	9.8557514331911
312	3005	192	11.942946414342
312	3006	193	13.281673413053
312	3007	194	13.354737228594
312	3147	195	13.387590942945
312	3148	196	13.339860889638
312	3149	197	13.271152209534
312	3150	198	13.34358413055
312	3151	199	13.36102348745
312	3295	200	13.298880631287
313	2867	189	1.9930851121875
313	3003	190	2.0457227517758
313	3004	191	1.958375534215
313	3005	192	2.0871949811513
313	3006	193	1.3387269987105
313	3007	194	0.073063815541101
313	3147	195	0.032853714351075
313	3148	196	-0.047730053307022
313	3149	197	-0.068708680104464
313	3150	198	0.072431921015959
313	3151	199	0.017439356900287
313	3295	200	-0.062142856162973
314	2867	189	4.2215389405203
314	3003	190	5.4300282473119
314	3004	191	6.3254843183846
314	3005	192	7.8509615055178
314	3006	193	6.2522535986235
314	3007	194	2.2094162023778
314	3147	195	2.0834731771849
314	3148	196	1.8193611538366
314	3149	197	1.7463689745143
314	3150	198	2.2060989357288
314	3151	199	2.0310298725026
314	3295	200	1.7696473701874
315	3003	190	2414.8925589694
315	3004	191	2411.9627857993
315	3005	192	2407.3062772232
315	3006	193	2402.3654572419
315	3007	194	2395.9558072921
315	3147	195	2388.1006089912
315	3148	196	2378.978760769
315	3149	197	2369.4012116214
315	3150	198	2359.8513236765
315	3151	199	2350.290784059
315	3295	200	2341.0180881016
316	3003	190	1578.444866511
316	3004	191	1579.5206639292
316	3005	192	1581.4072434641
316	3006	193	1586.4116134318
316	3007	194	1592.9037058027
316	3147	195	1600.8599395072
316	3148	196	1610.0991150811
316	3149	197	1619.7998529123
316	3150	198	1629.4725737572
316	3151	199	1639.1560832784
316	3295	200	1649.0911634816
317	3004	191	3.9973312404595
317	3005	192	5.9655132869614
317	3006	193	8.0251987055532
317	3007	194	10.022291549822
317	3147	195	12.077283199195
317	3148	196	13.597041808876
317	3149	197	13.66531432328
317	3150	198	13.566644394974
317	3151	199	13.582692384666
317	3295	200	13.596724563934
318	3005	192	1.9681820465019
318	3006	193	2.0596854185918
318	3007	194	1.9970928442688
318	3147	195	2.054991649373
318	3148	196	1.519758609681
318	3149	197	0.068272514403798
318	3150	198	-0.098669928305316
318	3151	199	0.016047989691142
318	3295	200	0.014032179268542
319	3005	192	4.2470211938026
319	3006	193	5.5284636503922
319	3007	194	6.5101960467323
319	3147	195	7.8366535299921
319	3148	196	6.978222049931
319	3149	197	2.2297984887385
319	3150	198	1.6725169632209
319	3151	199	2.0492499954432
319	3295	200	2.0440939392049
320	3006	193	2414.8450449788
320	3007	194	2411.8481639778
320	3147	195	2407.1918824697
320	3148	196	2402.1068140625
320	3149	197	2395.6393894139
320	3150	198	2387.8540473643
320	3151	199	2378.7425860802
320	3295	200	2368.9560980042
321	3006	193	1578.4623134006
321	3007	194	1579.5627524639
321	3147	195	1581.5231095897
321	3148	196	1586.6735833399
321	3149	197	1593.2241935218
321	3150	198	1601.1096724672
321	3151	199	1610.3383275038
321	3295	200	1620.2506916858
322	3007	194	4.0768216341553
322	3147	195	6.1146311434992
322	3148	196	8.1238958659168
322	3149	197	10.07226857951
322	3150	198	11.975930302181
322	3151	199	13.751272715454
322	3295	200	13.880561356815
323	3147	195	2.0378095093439
323	3148	196	2.0092647224176
323	3149	197	1.9483727135928
323	3150	198	1.9036617226712
323	3151	199	1.7753424132732
323	3295	200	0.12928864136057
324	3147	195	4.4290585903548
324	3148	196	5.4852832676338
324	3149	197	6.4197949691156
324	3150	198	7.340737888557
324	3151	199	7.8971625527147
324	3295	200	2.4591516963765
325	3148	196	2414.8708323571
325	3149	197	2412.0068498836
325	3150	198	2407.3947947501
325	3151	199	2402.6063379883
325	3295	200	2396.4215075286
326	3148	196	1578.4528444102
326	3149	197	1579.5044838274
326	3150	198	1581.3175874045
326	3151	199	1586.1676344201
326	3295	200	1592.4320156202
327	3149	197	3.9035555463673
327	3150	198	5.8214058272394
327	3151	199	7.7054297537466
327	3295	200	9.6555590937442
328	3150	198	1.9178502808721
328	3151	199	1.8840239265072
328	3295	200	1.9501293399977
329	3150	198	4.0997140834571
329	3151	199	5.0226217989374
329	3295	200	6.1968733187211
330	3151	199	2414.8713181916
330	3295	200	2411.9594073247
331	3151	199	1578.4526660144
331	3295	200	1579.5219044872
332	3295	200	3.9654431967067

